/*--------------------------------*- C++ -*----------------------------------*\
| =========                 |                                                 |
| \\      /  F ield         | OpenFOAM: The Open Source CFD Toolbox           |
|  \\    /   O peration     | Version:  v2006                                 |
|   \\  /    A nd           | Website:  www.openfoam.com                      |
|    \\/     M anipulation  |                                                 |
\*---------------------------------------------------------------------------*/
FoamFile
{
    version     2.0;
    format      ascii;
    class       volScalarField;
    location    "0";
    object      p;
}
// * * * * * * * * * * * * * * * * * * * * * * * * * * * * * * * * * * * * * //

dimensions      [1 -1 -2 0 0 0 0];

internalField   uniform 101325;

boundaryField
{
    inlet
    {
        type            pressureInletNSCBC;
        uniformValue    sine;
        uniformValueCoeffs
        {
		amplitude   constant 1;
                frequency   constant 0;
                scale       constant 1;
                level       constant 1;
        }
        field           p;
        gamma           1.4;
        fieldInf        1;
        lInf            2.25;
        UInf            1;
        etaAc           1;
        value           $internalField;
    }

    outlet
    {
        type            pressureOutletNSCBC;
        field           p;
        gamma           1.4;
        fieldInf        1;
        lInf            2.25;
        pInf            101325;
	etaAc           1;
        value           $internalField;
    }

    frontAndBack
    {
        type            empty;
    }
}


// ************************************************************************* //
