/*--------------------------------*- C++ -*----------------------------------*\
| =========                 |                                                 |
| \\      /  F ield         | OpenFOAM: The Open Source CFD Toolbox           |
|  \\    /   O peration     | Version:  4.x                                   |
|   \\  /    A nd           | Web:      www.OpenFOAM.org                      |
|    \\/     M anipulation  |                                                 |
\*---------------------------------------------------------------------------*/
FoamFile
{
    version     2.0;
    format      ascii;
    class       polyBoundaryMesh;
    location    "constant/polyMesh";
    object      boundary;
}
// * * * * * * * * * * * * * * * * * * * * * * * * * * * * * * * * * * * * * //

7
(
    plenum
    {
        type            patch;
        nFaces          0;
        startFace       8001;
    }
    outlet
    {
        type            patch;
        nFaces          0;
        startFace       8001;
    }
    sides
    {
        type            symmetry;
        inGroups        1(symmetry);
        nFaces          0;
        startFace       8001;
    }
    walls
    {
        type            wall;
        inGroups        1(wall);
        nFaces          234;
        startFace       8001;
    }
    procBoundary3to0
    {
        type            processor;
        inGroups        1(processor);
        nFaces          234;
        startFace       8235;
        matchTolerance  0.0001;
        transform       unknown;
        myProcNo        3;
        neighbProcNo    0;
    }
    procBoundary3to1
    {
        type            processor;
        inGroups        1(processor);
        nFaces          222;
        startFace       8469;
        matchTolerance  0.0001;
        transform       unknown;
        myProcNo        3;
        neighbProcNo    1;
    }
    procBoundary3to2
    {
        type            processor;
        inGroups        1(processor);
        nFaces          156;
        startFace       8691;
        matchTolerance  0.0001;
        transform       unknown;
        myProcNo        3;
        neighbProcNo    2;
    }
)

// ************************************************************************* //
