/*--------------------------------*- C++ -*----------------------------------*\
| =========                 |                                                 |
| \\      /  F ield         | OpenFOAM: The Open Source CFD Toolbox           |
|  \\    /   O peration     | Version:  v2006                                 |
|   \\  /    A nd           | Website:  www.openfoam.com                      |
|    \\/     M anipulation  |                                                 |
\*---------------------------------------------------------------------------*/
FoamFile
{
    version     2.0;
    format      ascii;
    class       extendedFeatureEdgeMesh;
    location    "constant/extendedFeatureEdgeMesh";
    object      body.extendedFeatureEdgeMesh;
}
// * * * * * * * * * * * * * * * * * * * * * * * * * * * * * * * * * * * * * //

// points

348
(
(-0.01624167 -0.29956 0.27)
(-0.02704592 -0.2987784 0.27)
(-0.01624167 -0.29956 -0.23)
(-0.005416245 -0.2999511 -0.23)
(-0.005416245 -0.2999511 0.27)
(0.005416245 -0.2999511 -0.23)
(0.005416245 -0.2999511 0.27)
(0.01624167 -0.29956 -0.23)
(0.01624167 -0.29956 0.27)
(0.02704592 -0.2987784 -0.23)
(0.02704592 -0.2987784 0.27)
(0.03781492 -0.2976072 -0.23)
(0.03781492 -0.2976072 0.27)
(0.0485346 -0.296048 -0.23)
(0.0485346 -0.296048 0.27)
(0.059191 -0.2941028 -0.23)
(0.059191 -0.2941028 0.27)
(0.06977024 -0.2917741 -0.23)
(0.06977024 -0.2917741 0.27)
(0.0802585 -0.289065 -0.23)
(0.0802585 -0.289065 0.27)
(0.09064212 -0.285979 -0.23)
(0.09064212 -0.285979 0.27)
(0.1009076 -0.2825202 -0.23)
(0.1009076 -0.2825202 0.27)
(0.1110414 -0.278693 -0.23)
(0.1110414 -0.278693 0.27)
(0.1210305 -0.2745025 -0.23)
(0.1210305 -0.2745025 0.27)
(0.1308618 -0.269954 -0.23)
(0.1308618 -0.269954 0.27)
(0.1405225 -0.2650536 -0.23)
(0.1405225 -0.2650536 0.27)
(0.15 -0.2598076 -0.23)
(0.15 -0.2598076 0.27)
(0.1592819 -0.2542229 -0.23)
(0.1592819 -0.2542229 0.27)
(0.1683561 -0.2483067 -0.23)
(0.1683561 -0.2483067 0.27)
(0.1772108 -0.2420668 -0.23)
(0.1772108 -0.2420668 0.27)
(0.1858345 -0.2355112 -0.23)
(0.1858345 -0.2355112 0.27)
(0.1942159 -0.2286486 -0.23)
(0.1942159 -0.2286486 0.27)
(0.202344 -0.2214879 -0.23)
(0.202344 -0.2214879 0.27)
(0.2102084 -0.2140384 -0.23)
(0.2102084 -0.2140384 0.27)
(0.2177987 -0.2063098 -0.23)
(0.2177987 -0.2063098 0.27)
(0.2251049 -0.1983123 -0.23)
(0.2251049 -0.1983123 0.27)
(0.2321178 -0.1900562 -0.23)
(0.2321178 -0.1900562 0.27)
(0.2388279 -0.1815523 -0.23)
(0.2388279 -0.1815523 0.27)
(0.2452267 -0.1728116 -0.23)
(0.2452267 -0.1728116 0.27)
(0.2513058 -0.1638457 -0.23)
(0.2513058 -0.1638457 0.27)
(0.2570572 -0.1546662 -0.23)
(0.2570572 -0.1546662 0.27)
(0.2624734 -0.145285 -0.23)
(0.2624734 -0.145285 0.27)
(0.2675474 -0.1357143 -0.23)
(0.2675474 -0.1357143 0.27)
(0.2722726 -0.1259667 -0.23)
(0.2722726 -0.1259667 0.27)
(0.2766428 -0.1160549 -0.23)
(0.2766428 -0.1160549 0.27)
(0.2806523 -0.1059918 -0.23)
(0.2806523 -0.1059918 0.27)
(0.2842959 -0.09579046 -0.23)
(0.2842959 -0.09579046 0.27)
(0.2875689 -0.08546425 -0.23)
(0.2875689 -0.08546425 0.27)
(0.2904669 -0.07502659 -0.23)
(0.2904669 -0.07502659 0.27)
(0.2929862 -0.06449113 -0.23)
(0.2929862 -0.06449113 0.27)
(0.2951235 -0.05387158 -0.23)
(0.2951235 -0.05387158 0.27)
(0.296876 -0.0431818 -0.23)
(0.296876 -0.0431818 0.27)
(0.2982414 -0.0324357 -0.23)
(0.2982414 -0.0324357 0.27)
(0.299218 -0.02164733 -0.23)
(0.299218 -0.02164733 0.27)
(0.2998044 -0.01083072 -0.23)
(0.2998044 -0.01083072 0.27)
(0.3 0 -0.23)
(0.3 -7.347881e-17 0.27)
(0.2998044 0.01083072 -0.23)
(0.2998044 0.01083072 0.27)
(0.299218 0.02164733 -0.23)
(0.299218 0.02164733 0.27)
(0.2982414 0.0324357 -0.23)
(0.2982414 0.0324357 0.27)
(0.296876 0.0431818 -0.23)
(0.296876 0.0431818 0.27)
(0.2951235 0.05387158 -0.23)
(0.2951235 0.05387158 0.27)
(0.2929862 0.06449113 -0.23)
(0.2929862 0.06449113 0.27)
(0.2904669 0.07502659 -0.23)
(0.2904669 0.07502659 0.27)
(0.2875689 0.08546425 -0.23)
(0.2875689 0.08546425 0.27)
(0.2842959 0.09579046 -0.23)
(0.2842959 0.09579046 0.27)
(0.2806523 0.1059918 -0.23)
(0.2806523 0.1059918 0.27)
(0.2766428 0.1160549 -0.23)
(0.2766428 0.1160549 0.27)
(0.2722726 0.1259667 -0.23)
(0.2722726 0.1259667 0.27)
(0.2675474 0.1357143 -0.23)
(0.2675474 0.1357143 0.27)
(0.2624734 0.145285 -0.23)
(0.2624734 0.145285 0.27)
(0.2570572 0.1546662 -0.23)
(0.2570572 0.1546662 0.27)
(0.2513058 0.1638457 -0.23)
(0.2513058 0.1638457 0.27)
(0.2452267 0.1728116 -0.23)
(0.2452267 0.1728116 0.27)
(0.2388279 0.1815523 -0.23)
(0.2388279 0.1815523 0.27)
(0.2321178 0.1900562 -0.23)
(0.2321178 0.1900562 0.27)
(0.2251049 0.1983123 -0.23)
(0.2251049 0.1983123 0.27)
(0.2177987 0.2063098 -0.23)
(0.2177987 0.2063098 0.27)
(0.2102084 0.2140384 -0.23)
(0.2102084 0.2140384 0.27)
(0.202344 0.2214879 -0.23)
(0.202344 0.2214879 0.27)
(0.1942159 0.2286486 -0.23)
(0.1942159 0.2286486 0.27)
(0.1858345 0.2355112 -0.23)
(0.1858345 0.2355112 0.27)
(0.1772108 0.2420668 -0.23)
(0.1772108 0.2420668 0.27)
(0.1683561 0.2483067 -0.23)
(0.1683561 0.2483067 0.27)
(0.1592819 0.2542229 -0.23)
(0.1592819 0.2542229 0.27)
(0.15 0.2598076 -0.23)
(0.15 0.2598076 0.27)
(0.1405225 0.2650536 -0.23)
(0.1405225 0.2650536 0.27)
(0.1308618 0.269954 -0.23)
(0.1308618 0.269954 0.27)
(0.1210305 0.2745025 -0.23)
(0.1210305 0.2745025 0.27)
(0.1110414 0.278693 -0.23)
(0.1110414 0.278693 0.27)
(0.1009076 0.2825202 -0.23)
(0.1009076 0.2825202 0.27)
(0.09064212 0.285979 -0.23)
(0.09064212 0.285979 0.27)
(0.0802585 0.289065 -0.23)
(0.0802585 0.289065 0.27)
(0.06977024 0.2917741 -0.23)
(0.06977024 0.2917741 0.27)
(0.059191 0.2941028 -0.23)
(0.059191 0.2941028 0.27)
(0.0485346 0.296048 -0.23)
(0.0485346 0.296048 0.27)
(0.03781492 0.2976072 -0.23)
(0.03781492 0.2976072 0.27)
(0.02704592 0.2987784 -0.23)
(0.02704592 0.2987784 0.27)
(0.01624167 0.29956 -0.23)
(0.01624167 0.29956 0.27)
(0.005416245 0.2999511 -0.23)
(0.005416245 0.2999511 0.27)
(-0.005416245 0.2999511 -0.23)
(-0.005416245 0.2999511 0.27)
(-0.01624167 0.29956 -0.23)
(-0.01624167 0.29956 0.27)
(-0.02704592 0.2987784 -0.23)
(-0.02704592 0.2987784 0.27)
(-0.03781492 0.2976072 -0.23)
(-0.03781492 0.2976072 0.27)
(-0.0485346 0.296048 -0.23)
(-0.0485346 0.296048 0.27)
(-0.059191 0.2941028 -0.23)
(-0.059191 0.2941028 0.27)
(-0.06977024 0.2917741 -0.23)
(-0.06977024 0.2917741 0.27)
(-0.0802585 0.289065 -0.23)
(-0.0802585 0.289065 0.27)
(-0.09064212 0.285979 -0.23)
(-0.09064212 0.285979 0.27)
(-0.1009076 0.2825202 -0.23)
(-0.1009076 0.2825202 0.27)
(-0.1110414 0.278693 -0.23)
(-0.1110414 0.278693 0.27)
(-0.1210305 0.2745025 -0.23)
(-0.1210305 0.2745025 0.27)
(-0.1308618 0.269954 -0.23)
(-0.1308618 0.269954 0.27)
(-0.1405225 0.2650536 -0.23)
(-0.1405225 0.2650536 0.27)
(-0.15 0.2598076 -0.23)
(-0.15 0.2598076 0.27)
(-0.1592819 0.2542229 -0.23)
(-0.1592819 0.2542229 0.27)
(-0.1683561 0.2483067 -0.23)
(-0.1683561 0.2483067 0.27)
(-0.1772108 0.2420668 -0.23)
(-0.1772108 0.2420668 0.27)
(-0.1858345 0.2355112 -0.23)
(-0.1858345 0.2355112 0.27)
(-0.1942159 0.2286486 -0.23)
(-0.1942159 0.2286486 0.27)
(-0.202344 0.2214879 -0.23)
(-0.202344 0.2214879 0.27)
(-0.2102084 0.2140384 -0.23)
(-0.2102084 0.2140384 0.27)
(-0.2177987 0.2063098 -0.23)
(-0.2177987 0.2063098 0.27)
(-0.2251049 0.1983123 -0.23)
(-0.2251049 0.1983123 0.27)
(-0.2321178 0.1900562 -0.23)
(-0.2321178 0.1900562 0.27)
(-0.2388279 0.1815523 -0.23)
(-0.2388279 0.1815523 0.27)
(-0.2452267 0.1728116 -0.23)
(-0.2452267 0.1728116 0.27)
(-0.2513058 0.1638457 -0.23)
(-0.2513058 0.1638457 0.27)
(-0.2570572 0.1546662 -0.23)
(-0.2570572 0.1546662 0.27)
(-0.2624734 0.145285 -0.23)
(-0.2624734 0.145285 0.27)
(-0.2675474 0.1357143 -0.23)
(-0.2675474 0.1357143 0.27)
(-0.2722726 0.1259667 -0.23)
(-0.2722726 0.1259667 0.27)
(-0.2766428 0.1160549 -0.23)
(-0.2766428 0.1160549 0.27)
(-0.2806523 0.1059918 -0.23)
(-0.2806523 0.1059918 0.27)
(-0.2842959 0.09579046 -0.23)
(-0.2842959 0.09579046 0.27)
(-0.2875689 0.08546425 -0.23)
(-0.2875689 0.08546425 0.27)
(-0.2904669 0.07502659 -0.23)
(-0.2904669 0.07502659 0.27)
(-0.2929862 0.06449113 -0.23)
(-0.2929862 0.06449113 0.27)
(-0.2951235 0.05387158 -0.23)
(-0.2951235 0.05387158 0.27)
(-0.296876 0.0431818 -0.23)
(-0.296876 0.0431818 0.27)
(-0.2982414 0.0324357 -0.23)
(-0.2982414 0.0324357 0.27)
(-0.299218 0.02164733 -0.23)
(-0.299218 0.02164733 0.27)
(-0.2998044 0.01083072 -0.23)
(-0.2998044 0.01083072 0.27)
(-0.3 1.699662e-16 -0.23)
(-0.3 1.699662e-16 0.27)
(-0.2998044 -0.01083072 -0.23)
(-0.2998044 -0.01083072 0.27)
(-0.299218 -0.02164733 -0.23)
(-0.299218 -0.02164733 0.27)
(-0.2982414 -0.0324357 -0.23)
(-0.2982414 -0.0324357 0.27)
(-0.296876 -0.0431818 -0.23)
(-0.296876 -0.0431818 0.27)
(-0.2951235 -0.05387158 -0.23)
(-0.2951235 -0.05387158 0.27)
(-0.2929862 -0.06449113 -0.23)
(-0.2929862 -0.06449113 0.27)
(-0.2904669 -0.07502659 -0.23)
(-0.2904669 -0.07502659 0.27)
(-0.2875689 -0.08546425 -0.23)
(-0.2875689 -0.08546425 0.27)
(-0.2842959 -0.09579046 -0.23)
(-0.2842959 -0.09579046 0.27)
(-0.2806523 -0.1059918 -0.23)
(-0.2806523 -0.1059918 0.27)
(-0.2766428 -0.1160549 -0.23)
(-0.2766428 -0.1160549 0.27)
(-0.2722726 -0.1259667 -0.23)
(-0.2722726 -0.1259667 0.27)
(-0.2675474 -0.1357143 -0.23)
(-0.2675474 -0.1357143 0.27)
(-0.2624734 -0.145285 -0.23)
(-0.2624734 -0.145285 0.27)
(-0.2570572 -0.1546662 -0.23)
(-0.2570572 -0.1546662 0.27)
(-0.2513058 -0.1638457 -0.23)
(-0.2513058 -0.1638457 0.27)
(-0.2452267 -0.1728116 -0.23)
(-0.2452267 -0.1728116 0.27)
(-0.2388279 -0.1815523 -0.23)
(-0.2388279 -0.1815523 0.27)
(-0.2321178 -0.1900562 -0.23)
(-0.2321178 -0.1900562 0.27)
(-0.2251049 -0.1983123 -0.23)
(-0.2251049 -0.1983123 0.27)
(-0.2177987 -0.2063098 -0.23)
(-0.2177987 -0.2063098 0.27)
(-0.2102084 -0.2140384 -0.23)
(-0.2102084 -0.2140384 0.27)
(-0.202344 -0.2214879 -0.23)
(-0.202344 -0.2214879 0.27)
(-0.1942159 -0.2286486 -0.23)
(-0.1942159 -0.2286486 0.27)
(-0.1858345 -0.2355112 -0.23)
(-0.1858345 -0.2355112 0.27)
(-0.1772108 -0.2420668 -0.23)
(-0.1772108 -0.2420668 0.27)
(-0.1683561 -0.2483067 -0.23)
(-0.1683561 -0.2483067 0.27)
(-0.1592819 -0.2542229 -0.23)
(-0.1592819 -0.2542229 0.27)
(-0.15 -0.2598076 -0.23)
(-0.15 -0.2598076 0.27)
(-0.1405225 -0.2650536 -0.23)
(-0.1405225 -0.2650536 0.27)
(-0.1308618 -0.269954 -0.23)
(-0.1308618 -0.269954 0.27)
(-0.1210305 -0.2745025 -0.23)
(-0.1210305 -0.2745025 0.27)
(-0.1110414 -0.278693 -0.23)
(-0.1110414 -0.278693 0.27)
(-0.1009076 -0.2825202 -0.23)
(-0.1009076 -0.2825202 0.27)
(-0.09064212 -0.285979 -0.23)
(-0.09064212 -0.285979 0.27)
(-0.0802585 -0.289065 -0.23)
(-0.0802585 -0.289065 0.27)
(-0.06977024 -0.2917741 -0.23)
(-0.06977024 -0.2917741 0.27)
(-0.059191 -0.2941028 -0.23)
(-0.059191 -0.2941028 0.27)
(-0.0485346 -0.296048 -0.23)
(-0.0485346 -0.296048 0.27)
(-0.03781492 -0.2976072 -0.23)
(-0.03781492 -0.2976072 0.27)
(-0.02704592 -0.2987784 -0.23)
)

// edges

348
(
(0 1)
(2 3)
(4 0)
(3 5)
(6 4)
(5 7)
(8 6)
(7 9)
(10 8)
(9 11)
(12 10)
(11 13)
(14 12)
(13 15)
(16 14)
(15 17)
(18 16)
(17 19)
(20 18)
(19 21)
(22 20)
(21 23)
(24 22)
(23 25)
(26 24)
(25 27)
(28 26)
(27 29)
(30 28)
(29 31)
(32 30)
(31 33)
(34 32)
(33 35)
(36 34)
(35 37)
(38 36)
(37 39)
(40 38)
(39 41)
(42 40)
(41 43)
(44 42)
(43 45)
(46 44)
(45 47)
(48 46)
(47 49)
(50 48)
(49 51)
(52 50)
(51 53)
(54 52)
(53 55)
(56 54)
(55 57)
(58 56)
(57 59)
(60 58)
(59 61)
(62 60)
(61 63)
(64 62)
(63 65)
(66 64)
(65 67)
(68 66)
(67 69)
(70 68)
(69 71)
(72 70)
(71 73)
(74 72)
(73 75)
(76 74)
(75 77)
(78 76)
(77 79)
(80 78)
(79 81)
(82 80)
(81 83)
(84 82)
(83 85)
(86 84)
(85 87)
(88 86)
(87 89)
(90 88)
(89 91)
(92 90)
(91 93)
(94 92)
(93 95)
(96 94)
(95 97)
(98 96)
(97 99)
(100 98)
(99 101)
(102 100)
(101 103)
(104 102)
(103 105)
(106 104)
(105 107)
(108 106)
(107 109)
(110 108)
(109 111)
(112 110)
(111 113)
(114 112)
(113 115)
(116 114)
(115 117)
(118 116)
(117 119)
(120 118)
(119 121)
(122 120)
(121 123)
(124 122)
(123 125)
(126 124)
(125 127)
(128 126)
(127 129)
(130 128)
(129 131)
(132 130)
(131 133)
(134 132)
(133 135)
(136 134)
(135 137)
(138 136)
(137 139)
(140 138)
(139 141)
(142 140)
(141 143)
(144 142)
(143 145)
(146 144)
(145 147)
(148 146)
(147 149)
(150 148)
(149 151)
(152 150)
(151 153)
(154 152)
(153 155)
(156 154)
(155 157)
(158 156)
(157 159)
(160 158)
(159 161)
(162 160)
(161 163)
(164 162)
(163 165)
(166 164)
(165 167)
(168 166)
(167 169)
(170 168)
(169 171)
(172 170)
(171 173)
(174 172)
(173 175)
(176 174)
(175 177)
(178 176)
(177 179)
(180 178)
(179 181)
(182 180)
(181 183)
(184 182)
(183 185)
(186 184)
(185 187)
(188 186)
(187 189)
(190 188)
(189 191)
(192 190)
(191 193)
(194 192)
(193 195)
(196 194)
(195 197)
(198 196)
(197 199)
(200 198)
(199 201)
(202 200)
(201 203)
(204 202)
(203 205)
(206 204)
(205 207)
(208 206)
(207 209)
(210 208)
(209 211)
(212 210)
(211 213)
(214 212)
(213 215)
(216 214)
(215 217)
(218 216)
(217 219)
(220 218)
(219 221)
(222 220)
(221 223)
(224 222)
(223 225)
(226 224)
(225 227)
(228 226)
(227 229)
(230 228)
(229 231)
(232 230)
(231 233)
(234 232)
(233 235)
(236 234)
(235 237)
(238 236)
(237 239)
(240 238)
(239 241)
(242 240)
(241 243)
(244 242)
(243 245)
(246 244)
(245 247)
(248 246)
(247 249)
(250 248)
(249 251)
(252 250)
(251 253)
(254 252)
(253 255)
(256 254)
(255 257)
(258 256)
(257 259)
(260 258)
(259 261)
(262 260)
(261 263)
(264 262)
(263 265)
(266 264)
(265 267)
(268 266)
(267 269)
(270 268)
(269 271)
(272 270)
(271 273)
(274 272)
(273 275)
(276 274)
(275 277)
(278 276)
(277 279)
(280 278)
(279 281)
(282 280)
(281 283)
(284 282)
(283 285)
(286 284)
(285 287)
(288 286)
(287 289)
(290 288)
(289 291)
(292 290)
(291 293)
(294 292)
(293 295)
(296 294)
(295 297)
(298 296)
(297 299)
(300 298)
(299 301)
(302 300)
(301 303)
(304 302)
(303 305)
(306 304)
(305 307)
(308 306)
(307 309)
(310 308)
(309 311)
(312 310)
(311 313)
(314 312)
(313 315)
(316 314)
(315 317)
(318 316)
(317 319)
(320 318)
(319 321)
(322 320)
(321 323)
(324 322)
(323 325)
(326 324)
(325 327)
(328 326)
(327 329)
(330 328)
(329 331)
(332 330)
(331 333)
(334 332)
(333 335)
(336 334)
(335 337)
(338 336)
(337 339)
(340 338)
(339 341)
(342 340)
(341 343)
(344 342)
(343 345)
(346 344)
(345 347)
(1 346)
(347 2)
)

// concaveStart mixedStart nonFeatureStart
0 0 0
// internalStart flatStart openStart multipleStart
348 348 348 348
// normals

696
(
(-0.07215295 -0.9973936 0)
(0 0 1)
(-0.03610398 -0.999348 -0)
(0 0 -1)
(-0.03610398 -0.999348 0)
(0 0 1)
(0 -1 0)
(0 0 -1)
(0 -1 0)
(0 0 1)
(0.03610398 -0.999348 0)
(0 0 -1)
(0.03610398 -0.999348 0)
(0 0 1)
(0.07215295 -0.9973936 0)
(0 0 -1)
(0.07215295 -0.9973936 0)
(0 0 1)
(0.1081192 -0.9941379 0)
(-0 0 -1)
(0.1081192 -0.9941379 0)
(0 -0 1)
(0.14394 -0.9895864 0)
(0 0 -1)
(0.14394 -0.9895864 0)
(0 0 1)
(0.1795708 -0.9837451 0)
(0 0 -1)
(0.1795708 -0.9837451 0)
(0 0 1)
(0.2149728 -0.97662 0)
(-0 0 -1)
(0.2149728 -0.97662 0)
(0 -0 1)
(0.2500894 -0.9682228 0)
(0 0 -1)
(0.2500894 -0.9682228 0)
(0 0 1)
(0.2848838 -0.9585621 0)
(0 0 -1)
(0.2848838 -0.9585621 0)
(0 0 1)
(0.3192977 -0.9476545 0)
(-0 0 -1)
(0.3192977 -0.9476545 0)
(0 -0 1)
(0.353311 -0.9355059 0)
(0 0 -1)
(0.353311 -0.9355059 0)
(0 0 1)
(0.3868464 -0.9221442 0)
(0 0 -1)
(0.3868464 -0.9221442 0)
(0 0 1)
(0.4198926 -0.9075738 0)
(-0 0 -1)
(0.4198926 -0.9075738 0)
(0 -0 1)
(0.4523795 -0.8918256 0)
(0 0 -1)
(0.4523795 -0.8918256 0)
(0 0 1)
(0.484283 -0.8749114 0)
(0 0 -1)
(0.484283 -0.8749114 0)
(0 0 1)
(0.5155511 -0.8568588 0)
(-0 0 -1)
(0.5155511 -0.8568588 0)
(0 -0 1)
(0.5461531 -0.8376854 0)
(0 0 -1)
(0.5461531 -0.8376854 0)
(0 0 1)
(0.5760384 -0.8174226 0)
(0 0 -1)
(0.5760384 -0.8174226 0)
(0 0 1)
(0.6051761 -0.7960916 0)
(-0 0 -1)
(0.6051761 -0.7960916 0)
(0 -0 1)
(0.6335192 -0.773727 0)
(0 0 -1)
(0.6335192 -0.773727 0)
(0 0 1)
(0.6610427 -0.7503483 0)
(0 0 -1)
(0.6610427 -0.7503483 0)
(0 0 1)
(0.6876964 -0.7259984 0)
(-0 0 -1)
(0.6876964 -0.7259984 0)
(0 -0 1)
(0.7134621 -0.7006938 0)
(0 0 -1)
(0.7134621 -0.7006938 0)
(0 0 1)
(0.7382952 -0.6744778 0)
(0 0 -1)
(0.7382952 -0.6744778 0)
(0 0 1)
(0.7621568 -0.6473925 0)
(-0 0 -1)
(0.7621568 -0.6473925 0)
(0 -0 1)
(0.7850402 -0.6194448 0)
(0 0 -1)
(0.7850402 -0.6194448 0)
(0 0 1)
(0.8068914 -0.5906998 0)
(0 0 -1)
(0.8068914 -0.5906998 0)
(0 0 1)
(0.8276862 -0.5611912 0)
(-0 0 -1)
(0.8276862 -0.5611912 0)
(0 -0 1)
(0.8474081 -0.5309421 0)
(0 0 -1)
(0.8474081 -0.5309421 0)
(0 0 1)
(0.8660265 -0.4999982 0)
(0 0 -1)
(0.8660265 -0.4999982 0)
(0 0 1)
(0.8835145 -0.4684039 0)
(-0 0 -1)
(0.8835145 -0.4684039 0)
(0 -0 1)
(0.8998477 -0.4362043 0)
(0 0 -1)
(0.8998477 -0.4362043 0)
(0 0 1)
(0.9150078 -0.4034362 0)
(0 0 -1)
(0.9150078 -0.4034362 0)
(0 0 1)
(0.9289764 -0.370139 0)
(-0 0 -1)
(0.9289764 -0.370139 0)
(0 -0 1)
(0.941735 -0.3363557 0)
(0 0 -1)
(0.941735 -0.3363557 0)
(0 0 1)
(0.9532614 -0.302147 0)
(0 0 -1)
(0.9532614 -0.302147 0)
(0 0 1)
(0.9635499 -0.2675288 0)
(-0 0 -1)
(0.9635499 -0.2675288 0)
(0 -0 1)
(0.9725797 -0.2325698 0)
(0 0 -1)
(0.9725797 -0.2325698 0)
(0 0 1)
(0.9803427 -0.1973022 0)
(0 0 -1)
(0.9803427 -0.1973022 0)
(0 0 1)
(0.9868262 -0.1617843 0)
(-0 0 -1)
(0.9868262 -0.1617843 0)
(0 -0 1)
(0.9920244 -0.1260461 0)
(0 0 -1)
(0.9920244 -0.1260461 0)
(0 0 1)
(0.9959278 -0.09015407 0)
(0 0 -1)
(0.9959278 -0.09015407 0)
(0 0 1)
(0.9985338 -0.05413255 0)
(-0 0 -1)
(0.9985338 -0.05413255 0)
(0 -0 1)
(0.9998369 -0.01805887 0)
(0 0 -1)
(0.9998369 -0.01805887 -2.658588e-18)
(0 0 1)
(0.9998369 0.01805887 2.653888e-18)
(0 0 -1)
(0.9998369 0.01805887 0)
(-0 0 1)
(0.9985338 0.05413255 0)
(0 -0 -1)
(0.9985338 0.05413255 0)
(0 0 1)
(0.9959278 0.09015407 0)
(0 0 -1)
(0.9959278 0.09015407 0)
(0 0 1)
(0.9920244 0.1260461 0)
(0 0 -1)
(0.9920244 0.1260461 0)
(0 0 1)
(0.9868262 0.1617843 0)
(0 -0 -1)
(0.9868262 0.1617843 0)
(0 0 1)
(0.9803427 0.1973022 0)
(0 0 -1)
(0.9803427 0.1973022 0)
(0 0 1)
(0.9725797 0.2325698 0)
(0 0 -1)
(0.9725797 0.2325698 0)
(0 0 1)
(0.9635499 0.2675288 0)
(0 -0 -1)
(0.9635499 0.2675288 0)
(0 0 1)
(0.9532614 0.302147 0)
(0 0 -1)
(0.9532614 0.302147 0)
(0 0 1)
(0.941735 0.3363557 0)
(0 0 -1)
(0.941735 0.3363557 0)
(0 0 1)
(0.9289764 0.370139 0)
(0 -0 -1)
(0.9289764 0.370139 0)
(0 0 1)
(0.9150078 0.4034362 0)
(0 0 -1)
(0.9150078 0.4034362 0)
(0 0 1)
(0.8998477 0.4362043 0)
(0 0 -1)
(0.8998477 0.4362043 0)
(0 0 1)
(0.8835145 0.4684039 0)
(0 -0 -1)
(0.8835145 0.4684039 0)
(0 0 1)
(0.8660265 0.4999982 0)
(0 0 -1)
(0.8660265 0.4999982 0)
(0 0 1)
(0.8474081 0.5309421 0)
(0 0 -1)
(0.8474081 0.5309421 0)
(0 0 1)
(0.8276862 0.5611912 0)
(0 -0 -1)
(0.8276862 0.5611912 0)
(0 0 1)
(0.8068914 0.5906998 0)
(0 0 -1)
(0.8068914 0.5906998 0)
(0 0 1)
(0.7850402 0.6194448 0)
(0 0 -1)
(0.7850402 0.6194448 0)
(0 0 1)
(0.7621568 0.6473925 0)
(0 -0 -1)
(0.7621568 0.6473925 0)
(0 0 1)
(0.7382952 0.6744778 0)
(0 0 -1)
(0.7382952 0.6744778 0)
(0 0 1)
(0.7134621 0.7006938 0)
(0 0 -1)
(0.7134621 0.7006938 0)
(0 0 1)
(0.6876964 0.7259984 0)
(0 -0 -1)
(0.6876964 0.7259984 0)
(0 0 1)
(0.6610427 0.7503483 0)
(0 0 -1)
(0.6610427 0.7503483 0)
(0 0 1)
(0.6335192 0.773727 0)
(0 0 -1)
(0.6335192 0.773727 0)
(0 0 1)
(0.6051761 0.7960916 0)
(0 -0 -1)
(0.6051761 0.7960916 0)
(0 0 1)
(0.5760384 0.8174226 0)
(0 0 -1)
(0.5760384 0.8174226 0)
(0 0 1)
(0.5461531 0.8376854 0)
(0 0 -1)
(0.5461531 0.8376854 0)
(0 0 1)
(0.5155511 0.8568588 0)
(0 -0 -1)
(0.5155511 0.8568588 0)
(0 0 1)
(0.484283 0.8749114 0)
(0 0 -1)
(0.484283 0.8749114 0)
(0 0 1)
(0.4523795 0.8918256 0)
(0 0 -1)
(0.4523795 0.8918256 0)
(0 0 1)
(0.4198926 0.9075738 0)
(0 -0 -1)
(0.4198926 0.9075738 0)
(0 0 1)
(0.3868464 0.9221442 0)
(0 0 -1)
(0.3868464 0.9221442 0)
(0 0 1)
(0.353311 0.9355059 0)
(0 0 -1)
(0.353311 0.9355059 0)
(0 0 1)
(0.3192977 0.9476545 0)
(0 -0 -1)
(0.3192977 0.9476545 0)
(0 0 1)
(0.2848838 0.9585621 0)
(0 0 -1)
(0.2848838 0.9585621 0)
(0 0 1)
(0.2500894 0.9682228 0)
(0 0 -1)
(0.2500894 0.9682228 0)
(0 0 1)
(0.2149728 0.97662 0)
(0 -0 -1)
(0.2149728 0.97662 0)
(0 0 1)
(0.1795708 0.9837451 0)
(0 0 -1)
(0.1795708 0.9837451 0)
(0 0 1)
(0.14394 0.9895864 0)
(0 0 -1)
(0.14394 0.9895864 0)
(0 0 1)
(0.1081192 0.9941379 0)
(0 -0 -1)
(0.1081192 0.9941379 0)
(0 0 1)
(0.07215295 0.9973936 0)
(0 0 -1)
(0.07215295 0.9973936 0)
(0 0 1)
(0.03610398 0.999348 0)
(0 0 -1)
(0.03610398 0.999348 0)
(0 0 1)
(0 1 0)
(0 0 -1)
(0 1 0)
(0 0 1)
(-0.03610398 0.999348 0)
(0 0 -1)
(-0.03610398 0.999348 0)
(0 0 1)
(-0.07215295 0.9973936 0)
(0 0 -1)
(-0.07215295 0.9973936 0)
(0 0 1)
(-0.1081192 0.9941379 0)
(0 0 -1)
(-0.1081192 0.9941379 0)
(0 0 1)
(-0.14394 0.9895864 0)
(0 0 -1)
(-0.14394 0.9895864 0)
(0 0 1)
(-0.1795708 0.9837451 0)
(0 0 -1)
(-0.1795708 0.9837451 0)
(0 0 1)
(-0.2149728 0.97662 0)
(0 0 -1)
(-0.2149728 0.97662 0)
(0 0 1)
(-0.2500894 0.9682228 0)
(0 0 -1)
(-0.2500894 0.9682228 0)
(0 0 1)
(-0.2848838 0.9585621 0)
(0 0 -1)
(-0.2848838 0.9585621 0)
(0 0 1)
(-0.3192977 0.9476545 0)
(0 0 -1)
(-0.3192977 0.9476545 0)
(0 0 1)
(-0.353311 0.9355059 0)
(0 0 -1)
(-0.353311 0.9355059 0)
(0 0 1)
(-0.3868464 0.9221442 0)
(0 0 -1)
(-0.3868464 0.9221442 0)
(0 0 1)
(-0.4198926 0.9075738 0)
(0 0 -1)
(-0.4198926 0.9075738 0)
(0 0 1)
(-0.4523795 0.8918256 0)
(0 0 -1)
(-0.4523795 0.8918256 0)
(0 0 1)
(-0.484283 0.8749114 0)
(0 0 -1)
(-0.484283 0.8749114 0)
(0 0 1)
(-0.5155511 0.8568588 0)
(0 0 -1)
(-0.5155511 0.8568588 0)
(0 0 1)
(-0.5461531 0.8376854 0)
(0 0 -1)
(-0.5461531 0.8376854 0)
(0 0 1)
(-0.5760384 0.8174226 0)
(0 0 -1)
(-0.5760384 0.8174226 0)
(0 0 1)
(-0.6051761 0.7960916 0)
(0 0 -1)
(-0.6051761 0.7960916 0)
(0 0 1)
(-0.6335192 0.773727 0)
(0 0 -1)
(-0.6335192 0.773727 0)
(0 0 1)
(-0.6610427 0.7503483 0)
(0 0 -1)
(-0.6610427 0.7503483 0)
(0 0 1)
(-0.6876964 0.7259984 0)
(0 0 -1)
(-0.6876964 0.7259984 0)
(0 0 1)
(-0.7134621 0.7006938 0)
(0 0 -1)
(-0.7134621 0.7006938 0)
(0 0 1)
(-0.7382952 0.6744778 0)
(0 0 -1)
(-0.7382952 0.6744778 0)
(0 0 1)
(-0.7621568 0.6473925 0)
(0 0 -1)
(-0.7621568 0.6473925 0)
(0 0 1)
(-0.7850402 0.6194448 0)
(0 0 -1)
(-0.7850402 0.6194448 0)
(0 0 1)
(-0.8068914 0.5906998 0)
(0 0 -1)
(-0.8068914 0.5906998 0)
(0 0 1)
(-0.8276862 0.5611912 0)
(0 0 -1)
(-0.8276862 0.5611912 0)
(0 0 1)
(-0.8474081 0.5309421 0)
(0 0 -1)
(-0.8474081 0.5309421 0)
(0 0 1)
(-0.8660265 0.4999982 0)
(0 0 -1)
(-0.8660265 0.4999982 0)
(0 0 1)
(-0.8835145 0.4684039 0)
(0 0 -1)
(-0.8835145 0.4684039 0)
(0 0 1)
(-0.8998477 0.4362043 0)
(0 0 -1)
(-0.8998477 0.4362043 0)
(0 0 1)
(-0.9150078 0.4034362 0)
(0 0 -1)
(-0.9150078 0.4034362 0)
(0 0 1)
(-0.9289764 0.370139 0)
(0 0 -1)
(-0.9289764 0.370139 0)
(0 0 1)
(-0.941735 0.3363557 0)
(0 0 -1)
(-0.941735 0.3363557 0)
(0 0 1)
(-0.9532614 0.302147 0)
(0 0 -1)
(-0.9532614 0.302147 0)
(0 0 1)
(-0.9635499 0.2675288 0)
(0 0 -1)
(-0.9635499 0.2675288 0)
(0 0 1)
(-0.9725797 0.2325698 0)
(0 0 -1)
(-0.9725797 0.2325698 0)
(0 0 1)
(-0.9803427 0.1973022 0)
(0 0 -1)
(-0.9803427 0.1973022 0)
(0 0 1)
(-0.9868262 0.1617843 0)
(0 0 -1)
(-0.9868262 0.1617843 0)
(0 0 1)
(-0.9920244 0.1260461 0)
(0 0 -1)
(-0.9920244 0.1260461 0)
(0 0 1)
(-0.9959278 0.09015407 0)
(0 0 -1)
(-0.9959278 0.09015407 0)
(0 0 1)
(-0.9985338 0.05413255 0)
(0 0 -1)
(-0.9985338 0.05413255 0)
(0 0 1)
(-0.9998369 0.01805887 0)
(0 0 -1)
(-0.9998369 0.01805887 0)
(0 0 1)
(-0.9998369 -0.01805887 -0)
(-0 0 -1)
(-0.9998369 -0.01805887 0)
(0 0 1)
(-0.9985338 -0.05413255 -0)
(0 0 -1)
(-0.9985338 -0.05413255 0)
(-0 0 1)
(-0.9959278 -0.09015407 -0)
(0 0 -1)
(-0.9959278 -0.09015407 0)
(0 0 1)
(-0.9920244 -0.1260461 -0)
(0 0 -1)
(-0.9920244 -0.1260461 0)
(0 0 1)
(-0.9868262 -0.1617843 -0)
(0 0 -1)
(-0.9868262 -0.1617843 0)
(-0 0 1)
(-0.9803427 -0.1973022 -0)
(0 0 -1)
(-0.9803427 -0.1973022 0)
(0 0 1)
(-0.9725797 -0.2325698 -0)
(0 0 -1)
(-0.9725797 -0.2325698 0)
(0 0 1)
(-0.9635499 -0.2675288 -0)
(0 0 -1)
(-0.9635499 -0.2675288 0)
(-0 0 1)
(-0.9532614 -0.302147 -0)
(0 0 -1)
(-0.9532614 -0.302147 0)
(0 0 1)
(-0.941735 -0.3363557 -0)
(0 0 -1)
(-0.941735 -0.3363557 0)
(0 0 1)
(-0.9289764 -0.370139 -0)
(0 0 -1)
(-0.9289764 -0.370139 0)
(-0 0 1)
(-0.9150078 -0.4034362 -0)
(0 0 -1)
(-0.9150078 -0.4034362 0)
(0 0 1)
(-0.8998477 -0.4362043 -0)
(0 0 -1)
(-0.8998477 -0.4362043 0)
(0 0 1)
(-0.8835145 -0.4684039 -0)
(0 0 -1)
(-0.8835145 -0.4684039 0)
(-0 0 1)
(-0.8660265 -0.4999982 -0)
(0 0 -1)
(-0.8660265 -0.4999982 0)
(0 0 1)
(-0.8474081 -0.5309421 -0)
(0 0 -1)
(-0.8474081 -0.5309421 0)
(0 0 1)
(-0.8276862 -0.5611912 -0)
(0 0 -1)
(-0.8276862 -0.5611912 0)
(-0 0 1)
(-0.8068914 -0.5906998 -0)
(0 0 -1)
(-0.8068914 -0.5906998 0)
(0 0 1)
(-0.7850402 -0.6194448 -0)
(0 0 -1)
(-0.7850402 -0.6194448 0)
(0 0 1)
(-0.7621568 -0.6473925 -0)
(0 0 -1)
(-0.7621568 -0.6473925 0)
(-0 0 1)
(-0.7382952 -0.6744778 -0)
(0 0 -1)
(-0.7382952 -0.6744778 0)
(0 0 1)
(-0.7134621 -0.7006938 -0)
(0 0 -1)
(-0.7134621 -0.7006938 0)
(0 0 1)
(-0.6876964 -0.7259984 -0)
(0 0 -1)
(-0.6876964 -0.7259984 0)
(-0 0 1)
(-0.6610427 -0.7503483 -0)
(0 0 -1)
(-0.6610427 -0.7503483 0)
(0 0 1)
(-0.6335192 -0.773727 -0)
(0 0 -1)
(-0.6335192 -0.773727 0)
(0 0 1)
(-0.6051761 -0.7960916 -0)
(0 0 -1)
(-0.6051761 -0.7960916 0)
(-0 0 1)
(-0.5760384 -0.8174226 -0)
(0 0 -1)
(-0.5760384 -0.8174226 0)
(0 0 1)
(-0.5461531 -0.8376854 -0)
(0 0 -1)
(-0.5461531 -0.8376854 0)
(0 0 1)
(-0.5155511 -0.8568588 -0)
(0 0 -1)
(-0.5155511 -0.8568588 0)
(-0 0 1)
(-0.484283 -0.8749114 -0)
(0 0 -1)
(-0.484283 -0.8749114 0)
(0 0 1)
(-0.4523795 -0.8918256 -0)
(0 0 -1)
(-0.4523795 -0.8918256 0)
(0 0 1)
(-0.4198926 -0.9075738 -0)
(0 0 -1)
(-0.4198926 -0.9075738 0)
(-0 0 1)
(-0.3868464 -0.9221442 -0)
(0 0 -1)
(-0.3868464 -0.9221442 0)
(0 0 1)
(-0.353311 -0.9355059 -0)
(0 0 -1)
(-0.353311 -0.9355059 0)
(0 0 1)
(-0.3192977 -0.9476545 -0)
(0 0 -1)
(-0.3192977 -0.9476545 0)
(-0 0 1)
(-0.2848838 -0.9585621 -0)
(0 0 -1)
(-0.2848838 -0.9585621 0)
(0 0 1)
(-0.2500894 -0.9682228 -0)
(0 0 -1)
(-0.2500894 -0.9682228 0)
(0 0 1)
(-0.2149728 -0.97662 -0)
(0 0 -1)
(-0.2149728 -0.97662 0)
(-0 0 1)
(-0.1795708 -0.9837451 -0)
(0 0 -1)
(-0.1795708 -0.9837451 0)
(0 0 1)
(-0.14394 -0.9895864 -0)
(0 0 -1)
(-0.14394 -0.9895864 0)
(0 0 1)
(-0.1081192 -0.9941379 -0)
(0 0 -1)
(-0.1081192 -0.9941379 0)
(-0 0 1)
(-0.07215295 -0.9973936 -0)
(0 0 -1)
)

// normal volume types

696
(
0
0
0
0
0
0
0
0
0
0
0
0
0
0
0
0
0
0
0
0
0
0
0
0
0
0
0
0
0
0
0
0
0
0
0
0
0
0
0
0
0
0
0
0
0
0
0
0
0
0
0
0
0
0
0
0
0
0
0
0
0
0
0
0
0
0
0
0
0
0
0
0
0
0
0
0
0
0
0
0
0
0
0
0
0
0
0
0
0
0
0
0
0
0
0
0
0
0
0
0
0
0
0
0
0
0
0
0
0
0
0
0
0
0
0
0
0
0
0
0
0
0
0
0
0
0
0
0
0
0
0
0
0
0
0
0
0
0
0
0
0
0
0
0
0
0
0
0
0
0
0
0
0
0
0
0
0
0
0
0
0
0
0
0
0
0
0
0
0
0
0
0
0
0
0
0
0
0
0
0
0
0
0
0
0
0
0
0
0
0
0
0
0
0
0
0
0
0
0
0
0
0
0
0
0
0
0
0
0
0
0
0
0
0
0
0
0
0
0
0
0
0
0
0
0
0
0
0
0
0
0
0
0
0
0
0
0
0
0
0
0
0
0
0
0
0
0
0
0
0
0
0
0
0
0
0
0
0
0
0
0
0
0
0
0
0
0
0
0
0
0
0
0
0
0
0
0
0
0
0
0
0
0
0
0
0
0
0
0
0
0
0
0
0
0
0
0
0
0
0
0
0
0
0
0
0
0
0
0
0
0
0
0
0
0
0
0
0
0
0
0
0
0
0
0
0
0
0
0
0
0
0
0
0
0
0
0
0
0
0
0
0
0
0
0
0
0
0
0
0
0
0
0
0
0
0
0
0
0
0
0
0
0
0
0
0
0
0
0
0
0
0
0
0
0
0
0
0
0
0
0
0
0
0
0
0
0
0
0
0
0
0
0
0
0
0
0
0
0
0
0
0
0
0
0
0
0
0
0
0
0
0
0
0
0
0
0
0
0
0
0
0
0
0
0
0
0
0
0
0
0
0
0
0
0
0
0
0
0
0
0
0
0
0
0
0
0
0
0
0
0
0
0
0
0
0
0
0
0
0
0
0
0
0
0
0
0
0
0
0
0
0
0
0
0
0
0
0
0
0
0
0
0
0
0
0
0
0
0
0
0
0
0
0
0
0
0
0
0
0
0
0
0
0
0
0
0
0
0
0
0
0
0
0
0
0
0
0
0
0
0
0
0
0
0
0
0
0
0
0
0
0
0
0
0
0
0
0
0
0
0
0
0
0
0
0
0
0
0
0
0
0
0
0
0
0
0
0
0
0
0
0
0
0
0
0
0
0
0
0
0
0
0
0
0
0
0
0
0
0
0
0
0
0
0
0
0
0
0
0
0
0
0
0
0
0
0
0
0
0
0
0
0
0
0
0
0
0
0
0
0
0
0
0
0
0
0
0
0
0
0
0
0
0
0
0
0
0
0
0
0
0
0
0
0
0
0
0
0
0
0
0
0
0
0
0
0
0
0
0
0
0
0
0
0
0
0
0
0
0
0
0
0
0
0
0
0
0
0
0
0
0
0
0
0
0
0
0
0
0
0
0
0
0
0
0
0
0
0
0
0
0
0
0
0
0
)

// normalDirections

348
(
2(1 -1)
2(1 -1)
2(1 -1)
2(1 -1)
2(1 -1)
2(1 -1)
2(1 -1)
2(1 -1)
2(1 -1)
2(1 -1)
2(1 -1)
2(1 -1)
2(1 -1)
2(1 -1)
2(1 -1)
2(1 -1)
2(1 -1)
2(1 -1)
2(1 -1)
2(1 -1)
2(1 -1)
2(1 -1)
2(1 -1)
2(1 -1)
2(1 -1)
2(1 -1)
2(1 -1)
2(1 -1)
2(1 -1)
2(1 -1)
2(1 -1)
2(1 -1)
2(1 -1)
2(1 -1)
2(1 -1)
2(1 -1)
2(1 -1)
2(1 -1)
2(1 -1)
2(1 -1)
2(1 -1)
2(1 -1)
2(1 -1)
2(1 -1)
2(1 -1)
2(1 -1)
2(1 -1)
2(1 -1)
2(1 -1)
2(1 -1)
2(1 -1)
2(1 -1)
2(1 -1)
2(1 -1)
2(1 -1)
2(1 -1)
2(1 -1)
2(1 -1)
2(1 -1)
2(1 -1)
2(1 -1)
2(1 -1)
2(1 -1)
2(1 -1)
2(1 -1)
2(1 -1)
2(1 -1)
2(1 -1)
2(1 -1)
2(1 -1)
2(1 -1)
2(1 -1)
2(1 -1)
2(1 -1)
2(1 -1)
2(1 -1)
2(1 -1)
2(1 -1)
2(1 -1)
2(1 -1)
2(1 -1)
2(1 -1)
2(1 -1)
2(1 -1)
2(1 -1)
2(1 -1)
2(1 -1)
2(1 -1)
2(1 -1)
2(1 -1)
2(1 -1)
2(1 -1)
2(1 -1)
2(1 -1)
2(1 -1)
2(1 -1)
2(1 -1)
2(1 -1)
2(1 -1)
2(1 -1)
2(1 -1)
2(1 -1)
2(1 -1)
2(1 -1)
2(1 -1)
2(1 -1)
2(1 -1)
2(1 -1)
2(1 -1)
2(1 -1)
2(1 -1)
2(1 -1)
2(1 -1)
2(1 -1)
2(1 -1)
2(1 -1)
2(1 -1)
2(1 -1)
2(1 -1)
2(1 -1)
2(1 -1)
2(1 -1)
2(1 -1)
2(1 -1)
2(1 -1)
2(1 -1)
2(1 -1)
2(1 -1)
2(1 -1)
2(1 -1)
2(1 -1)
2(1 -1)
2(1 -1)
2(1 -1)
2(1 -1)
2(1 -1)
2(1 -1)
2(1 -1)
2(1 -1)
2(1 -1)
2(1 -1)
2(1 -1)
2(1 -1)
2(1 -1)
2(1 -1)
2(1 -1)
2(1 -1)
2(1 -1)
2(1 -1)
2(1 -1)
2(1 -1)
2(1 -1)
2(1 -1)
2(1 -1)
2(1 -1)
2(1 -1)
2(1 -1)
2(1 -1)
2(1 -1)
2(1 -1)
2(1 -1)
2(1 -1)
2(1 -1)
2(1 -1)
2(1 -1)
2(1 -1)
2(1 -1)
2(1 -1)
2(1 -1)
2(1 -1)
2(1 -1)
2(1 -1)
2(1 -1)
2(1 -1)
2(1 -1)
2(1 -1)
2(1 -1)
2(1 -1)
2(1 -1)
2(1 -1)
2(1 -1)
2(1 -1)
2(1 -1)
2(1 -1)
2(1 -1)
2(1 -1)
2(1 -1)
2(1 -1)
2(1 -1)
2(1 -1)
2(1 -1)
2(1 -1)
2(1 -1)
2(1 -1)
2(1 -1)
2(1 -1)
2(1 -1)
2(1 -1)
2(1 -1)
2(1 -1)
2(1 -1)
2(1 -1)
2(1 -1)
2(1 -1)
2(1 -1)
2(1 -1)
2(1 -1)
2(1 -1)
2(1 -1)
2(1 -1)
2(1 -1)
2(1 -1)
2(1 -1)
2(1 -1)
2(1 -1)
2(1 -1)
2(1 -1)
2(1 -1)
2(1 -1)
2(1 -1)
2(1 -1)
2(1 -1)
2(1 -1)
2(1 -1)
2(1 -1)
2(1 -1)
2(1 -1)
2(1 -1)
2(1 -1)
2(1 -1)
2(1 -1)
2(1 -1)
2(1 -1)
2(1 -1)
2(1 -1)
2(1 -1)
2(1 -1)
2(1 -1)
2(1 -1)
2(1 -1)
2(1 -1)
2(1 -1)
2(1 -1)
2(1 -1)
2(1 -1)
2(1 -1)
2(1 -1)
2(1 -1)
2(1 -1)
2(1 -1)
2(1 -1)
2(1 -1)
2(1 -1)
2(1 -1)
2(1 -1)
2(1 -1)
2(1 -1)
2(1 -1)
2(1 -1)
2(1 -1)
2(1 -1)
2(1 -1)
2(1 -1)
2(1 -1)
2(1 -1)
2(1 -1)
2(1 -1)
2(1 -1)
2(1 -1)
2(1 -1)
2(1 -1)
2(1 -1)
2(1 -1)
2(1 -1)
2(1 -1)
2(1 -1)
2(1 -1)
2(1 -1)
2(1 -1)
2(1 -1)
2(1 -1)
2(1 -1)
2(1 -1)
2(1 -1)
2(1 -1)
2(1 -1)
2(1 -1)
2(1 -1)
2(1 -1)
2(1 -1)
2(1 -1)
2(1 -1)
2(1 -1)
2(1 -1)
2(1 -1)
2(1 -1)
2(1 -1)
2(1 -1)
2(1 -1)
2(1 -1)
2(1 -1)
2(1 -1)
2(1 -1)
2(1 -1)
2(1 -1)
2(1 -1)
2(1 -1)
2(1 -1)
2(1 -1)
2(1 -1)
2(1 -1)
2(1 -1)
2(1 -1)
2(1 -1)
2(1 -1)
2(1 -1)
2(1 -1)
2(1 -1)
2(1 -1)
2(1 -1)
2(1 -1)
2(1 -1)
2(1 -1)
2(1 -1)
2(1 -1)
2(1 -1)
2(1 -1)
2(1 -1)
2(1 -1)
2(1 -1)
2(1 -1)
2(1 -1)
2(1 -1)
2(1 -1)
2(1 -1)
2(1 -1)
2(1 -1)
2(1 -1)
2(1 -1)
2(1 -1)
2(1 -1)
2(1 -1)