/*--------------------------------*- C++ -*----------------------------------*\
| =========                 |                                                 |
| \\      /  F ield         | OpenFOAM: The Open Source CFD Toolbox           |
|  \\    /   O peration     | Version:  v2006                                 |
|   \\  /    A nd           | Website:  www.openfoam.com                      |
|    \\/     M anipulation  |                                                 |
\*---------------------------------------------------------------------------*/
FoamFile
{
    version     2.0;
    format      ascii;
    class       extendedFeatureEdgeMesh;
    location    "constant/extendedFeatureEdgeMesh";
    object      body.extendedFeatureEdgeMesh;
}
// * * * * * * * * * * * * * * * * * * * * * * * * * * * * * * * * * * * * * //

// points

1414
(
(0.2886309027671814 0.08180586993694305 2)
(0.2935870885848999 0.06169797107577324 2)
(0.2027830928564072 0.2210859954357147 2)
(0.2175529003143311 0.2065690010786057 2)
(-0.2245531976222992 0.1989368051290512 2)
(-0.2102932929992676 0.2139550000429153 2)
(0.07681172341108322 -0.2899999022483826 2)
(0.05662127956748009 -0.2946082949638367 2)
(0.2746224105358124 -0.1207581982016563 2)
(0.2656368017196655 -0.13941690325737 2)
(0.2746224105358124 -0.1207581982016563 -0.2300000041723251)
(0.2822993099689484 -0.1015238985419273 -0.2300000041723251)
(0.2822993099689484 -0.1015238985419273 2)
(0.2886309027671814 -0.08180586993694305 -0.2300000041723251)
(0.2886309027671814 -0.08180586993694305 2)
(0.2935870885848999 -0.06169797107577324 -0.2300000041723251)
(0.2935870885848999 -0.06169797107577324 2)
(0.2966712117195129 -0.04400859028100967 -0.2300000041723251)
(0.2971440851688385 -0.04129604995250702 2)
(0.2553853094577789 -0.1574113965034485 -0.2300000041723251)
(0.2594625055789948 -0.1502546966075897 -0.2300000041723251)
(0.2656368017196655 -0.13941690325737 -0.2300000041723251)
(0.2439167946577072 -0.1746556013822556 2)
(0.2312860041856766 -0.1910675019025803 2)
(0.2439167946577072 -0.1746556013822556 -0.2300000041723251)
(0.2553853094577789 -0.1574113965034485 2)
(0.2175529003143311 -0.2065690010786057 2)
(0.2027830928564072 -0.2210859954357147 2)
(0.2175529003143311 -0.2065690010786057 -0.2300000041723251)
(0.2275633960962296 -0.1952694058418274 -0.2300000041723251)
(0.2312860041856766 -0.1910675019025803 -0.2300000041723251)
(0.1704193949699402 -0.2468951940536499 2)
(0.1529798060655594 -0.2580642998218536 2)
(0.1704193949699402 -0.2468951940536499 -0.2300000041723251)
(0.1870469003915787 -0.2345494031906128 -0.2300000041723251)
(0.1870469003915787 -0.2345494031906128 2)
(0.1952122002840042 -0.2275633960962296 -0.2300000041723251)
(0.2027830928564072 -0.2210859954357147 -0.2300000041723251)
(0.09335851669311523 -0.2849999964237213 -0.2300000041723251)
(0.09663613140583038 -0.2840096056461334 -0.2300000041723251)
(0.1159999966621399 -0.2766658961772919 -0.2300000041723251)
(0.1159999966621399 -0.2766658961772919 2)
(0.09663613140583038 -0.2840096056461334 2)
(0.1348111033439636 -0.2680037021636963 -0.2300000041723251)
(0.1348111033439636 -0.2680037021636963 2)
(0.1502546966075897 -0.2595551013946533 -0.2300000041723251)
(0.1529798060655594 -0.2580642998218536 -0.2300000041723251)
(0.07681172341108322 -0.2899999022483826 -0.2300000041723251)
(0.08532586693763733 -0.2874271869659424 -0.2300000041723251)
(0.03616100922226906 -0.2978127002716064 -0.2300000041723251)
(0.04400859028100967 -0.2965835928916931 -0.2300000041723251)
(0.05662127956748009 -0.2946082949638367 -0.2300000041723251)
(-0.005178192164748907 -0.2999553084373474 2)
(-0.02586011029779911 -0.2988832890987396 2)
(-0.005178192164748907 -0.2999553084373474 -0.2300000041723251)
(0.0155284097418189 -0.2995978891849518 -0.2300000041723251)
(0.0155284097418189 -0.2995978891849518 2)
(0.03616100922226906 -0.2978127002716064 2)
(-0.04641880095005035 -0.296387106180191 -0.2300000041723251)
(-0.04400859028100967 -0.2966797053813934 -0.2300000041723251)
(-0.02586011029779911 -0.2988832890987396 -0.2300000041723251)
(-0.06675627827644348 -0.2924784123897552 2)
(-0.08677563816308975 -0.2871758937835693 2)
(-0.06675627827644348 -0.2924784123897552 -0.2300000041723251)
(-0.04641880095005035 -0.296387106180191 2)
(-0.1254802942276001 -0.2724970877170563 2)
(-0.1439812034368515 -0.2631908059120178 2)
(-0.1254802942276001 -0.2724970877170563 -0.2300000041723251)
(-0.1063814982771873 -0.2805049121379852 -0.2300000041723251)
(-0.1063814982771873 -0.2805049121379852 2)
(-0.09317047148942947 -0.2849999964237213 -0.2300000041723251)
(-0.08677563816308975 -0.2871758937835693 -0.2300000041723251)
(-0.178839698433876 -0.2408657968044281 2)
(-0.1950311958789825 -0.2279535979032516 2)
(-0.178839698433876 -0.2408657968044281 -0.2300000041723251)
(-0.1617960035800934 -0.2526302933692932 -0.2300000041723251)
(-0.1617960035800934 -0.2526302933692932 2)
(-0.1502546966075897 -0.2594718933105469 -0.2300000041723251)
(-0.1439812034368515 -0.2631908059120178 -0.2300000041723251)
(-0.2102932929992676 -0.2139550000429153 2)
(-0.2245531976222992 -0.1989368051290512 2)
(-0.2102932929992676 -0.2139550000429153 -0.2300000041723251)
(-0.1954565942287445 -0.2275633960962296 -0.2300000041723251)
(-0.1950311958789825 -0.2279535979032516 -0.2300000041723251)
(-0.237743005156517 -0.1829705983400345 2)
(-0.249799907207489 -0.1661324948072433 2)
(-0.237743005156517 -0.1829705983400345 -0.2300000041723251)
(-0.2275633960962296 -0.1952929943799973 -0.2300000041723251)
(-0.2245531976222992 -0.1989368051290512 -0.2300000041723251)
(-0.2606664001941681 -0.1485026031732559 -0.2300000041723251)
(-0.25958651304245 -0.1502546966075897 -0.2300000041723251)
(-0.249799907207489 -0.1661324948072433 -0.2300000041723251)
(-0.2702907025814056 -0.1301651000976562 2)
(-0.2786268889904022 -0.1112072989344597 2)
(-0.2702907025814056 -0.1301651000976562 -0.2300000041723251)
(-0.2606664001941681 -0.1485026031732559 2)
(-0.2856352925300598 -0.09171955287456512 -0.2300000041723251)
(-0.2849999964237213 -0.09348607808351517 -0.2300000041723251)
(-0.2786268889904022 -0.1112072989344597 -0.2300000041723251)
(-0.2912825047969818 -0.07179470360279083 2)
(-0.2955417037010193 -0.0515277199447155 2)
(-0.2912825047969818 -0.07179470360279083 -0.2300000041723251)
(-0.2856352925300598 -0.09171955287456512 2)
(-0.2998211979866028 0.0103548401966691 2)
(-0.2983923852443695 0.03101518005132675 2)
(-0.2998211979866028 0.0103548401966691 -0.2300000041723251)
(-0.2998211979866028 -0.0103548401966691 -0.2300000041723251)
(-0.2998211979866028 -0.0103548401966691 2)
(-0.2983923852443695 -0.03101518005132675 -0.2300000041723251)
(-0.2983923852443695 -0.03101518005132675 2)
(-0.2965866923332214 -0.04400859028100967 -0.2300000041723251)
(-0.2955417037010193 -0.0515277199447155 -0.2300000041723251)
(-0.2955417037010193 0.0515277199447155 -0.2300000041723251)
(-0.2965866923332214 0.04400859028100967 -0.2300000041723251)
(-0.2983923852443695 0.03101518005132675 -0.2300000041723251)
(-0.2955417037010193 0.0515277199447155 2)
(-0.2912825047969818 0.07179470360279083 2)
(-0.2912825047969818 0.07179470360279083 -0.2300000041723251)
(-0.2874475121498108 0.08532586693763733 -0.2300000041723251)
(-0.2856352925300598 0.09171955287456512 -0.2300000041723251)
(-0.2856352925300598 0.09171955287456512 2)
(-0.2849999964237213 0.09348607808351517 -0.2300000041723251)
(-0.2786268889904022 0.1112072989344597 2)
(-0.2786268889904022 0.1112072989344597 -0.2300000041723251)
(-0.2702907025814056 0.1301651000976562 2)
(-0.2702907025814056 0.1301651000976562 -0.2300000041723251)
(-0.2606664001941681 0.1485026031732559 2)
(-0.2606664001941681 0.1485026031732559 -0.2300000041723251)
(-0.25958651304245 0.1502546966075897 -0.2300000041723251)
(-0.249799907207489 0.1661324948072433 2)
(-0.249799907207489 0.1661324948072433 -0.2300000041723251)
(-0.237743005156517 0.1829705983400345 2)
(-0.237743005156517 0.1829705983400345 -0.2300000041723251)
(-0.2245531976222992 0.1989368051290512 -0.2300000041723251)
(-0.2275633960962296 0.1952929943799973 -0.2300000041723251)
(-0.1950311958789825 0.2279535979032516 -0.2300000041723251)
(-0.1954565942287445 0.2275633960962296 -0.2300000041723251)
(-0.2102932929992676 0.2139550000429153 -0.2300000041723251)
(-0.178839698433876 0.2408657968044281 2)
(-0.1617960035800934 0.2526302933692932 2)
(-0.178839698433876 0.2408657968044281 -0.2300000041723251)
(-0.1950311958789825 0.2279535979032516 2)
(-0.1439812034368515 0.2631908059120178 -0.2300000041723251)
(-0.1502546966075897 0.2594718933105469 -0.2300000041723251)
(-0.1617960035800934 0.2526302933692932 -0.2300000041723251)
(-0.06675627827644348 0.2924784123897552 2)
(-0.04641880095005035 0.296387106180191 2)
(-0.06675627827644348 0.2924784123897552 -0.2300000041723251)
(-0.08677563816308975 0.2871758937835693 -0.2300000041723251)
(-0.08677563816308975 0.2871758937835693 2)
(-0.1063814982771873 0.2805049121379852 -0.2300000041723251)
(-0.1063814982771873 0.2805049121379852 2)
(-0.1254802942276001 0.2724970877170563 -0.2300000041723251)
(-0.1254802942276001 0.2724970877170563 2)
(-0.1439812034368515 0.2631908059120178 2)
(0.0155284097418189 0.2995978891849518 2)
(0.03616100922226906 0.2978127002716064 2)
(0.0155284097418189 0.2995978891849518 -0.2300000041723251)
(-0.005178192164748907 0.2999553084373474 -0.2300000041723251)
(-0.005178192164748907 0.2999553084373474 2)
(-0.02586011029779911 0.2988832890987396 -0.2300000041723251)
(-0.02586011029779911 0.2988832890987396 2)
(-0.04400859028100967 0.2966797053813934 -0.2300000041723251)
(-0.04641880095005035 0.296387106180191 -0.2300000041723251)
(0.05662127956748009 0.2946082949638367 2)
(0.07681172341108322 0.2899999022483826 2)
(0.05662127956748009 0.2946082949638367 -0.2300000041723251)
(0.04400859028100967 0.2965835928916931 -0.2300000041723251)
(0.03616100922226906 0.2978127002716064 -0.2300000041723251)
(0.1159999966621399 0.2766658961772919 2)
(0.1348111033439636 0.2680037021636963 2)
(0.1159999966621399 0.2766658961772919 -0.2300000041723251)
(0.09663613140583038 0.2840096056461334 -0.2300000041723251)
(0.09663613140583038 0.2840096056461334 2)
(0.08532586693763733 0.2874271869659424 -0.2300000041723251)
(0.07681172341108322 0.2899999022483826 -0.2300000041723251)
(0.1529798060655594 0.2580642998218536 -0.2300000041723251)
(0.1502546966075897 0.2595551013946533 -0.2300000041723251)
(0.1348111033439636 0.2680037021636963 -0.2300000041723251)
(0.1529798060655594 0.2580642998218536 2)
(0.1704193949699402 0.2468951940536499 2)
(0.1704193949699402 0.2468951940536499 -0.2300000041723251)
(0.1870469003915787 0.2345494031906128 2)
(0.1870469003915787 0.2345494031906128 -0.2300000041723251)
(0.2027830928564072 0.2210859954357147 -0.2300000041723251)
(0.1952122002840042 0.2275633960962296 -0.2300000041723251)
(0.2312860041856766 0.1910675019025803 -0.2300000041723251)
(0.2275633960962296 0.1952694058418274 -0.2300000041723251)
(0.2175529003143311 0.2065690010786057 -0.2300000041723251)
(0.2312860041856766 0.1910675019025803 2)
(0.2439167946577072 0.1746556013822556 2)
(0.2439167946577072 0.1746556013822556 -0.2300000041723251)
(0.2553853094577789 0.1574113965034485 2)
(0.2553853094577789 0.1574113965034485 -0.2300000041723251)
(0.2594625055789948 0.1502546966075897 -0.2300000041723251)
(0.2656368017196655 0.13941690325737 2)
(0.2656368017196655 0.13941690325737 -0.2300000041723251)
(0.2746224105358124 0.1207581982016563 2)
(0.2746224105358124 0.1207581982016563 -0.2300000041723251)
(0.2822993099689484 0.1015238985419273 2)
(0.2822993099689484 0.1015238985419273 -0.2300000041723251)
(0.2886309027671814 0.08180586993694305 -0.2300000041723251)
(0.2875005900859833 0.08532586693763733 -0.2300000041723251)
(0.2971440851688385 0.04129604995250702 -0.2300000041723251)
(0.2966712117195129 0.04400859028100967 -0.2300000041723251)
(0.2935870885848999 0.06169797107577324 -0.2300000041723251)
(0.2971440851688385 -0.04129604995250702 -0.2300000041723251)
(0.2992852032184601 -0.02069734036922455 -0.2300000041723251)
(0.2992852032184601 -0.02069734036922455 2)
(0.300000011920929 0 -0.2300000041723251)
(0.300000011920929 -7.347881115511007e-17 2)
(0.2992852032184601 0.02069734036922455 -0.2300000041723251)
(0.2992852032184601 0.02069734036922455 2)
(0.2971440851688385 0.04129604995250702 2)
(0.04862488061189651 0.2194381952285767 -1.5)
(0.04801718890666962 0.2124923020601273 -1.5)
(0.04862488061189651 0.2055463939905167 -1.5)
(0.05042948946356773 0.1988115012645721 -1.5)
(0.05337617173790932 0.1924923062324524 -1.5)
(0.05737540870904922 0.1867807954549789 -1.5)
(0.06230568885803223 0.1818504929542542 -1.5)
(0.06801719218492508 0.1778513044118881 -1.5)
(0.07433638721704483 0.1749045997858047 -1.5)
(0.08107127249240875 0.1730999946594238 -1.5)
(0.05337617173790932 0.2324922978878021 -1.5)
(0.05042948946356773 0.2261731028556824 -1.5)
(0.05737540870904922 0.2382037937641144 -1.5)
(0.06230568885803223 0.2431340962648392 -1.5)
(0.06801719218492508 0.2471332997083664 -1.5)
(0.07433638721704483 0.2500799894332886 -1.5)
(0.08107127249240875 0.2518846094608307 -1.5)
(0.08801718801259995 0.2524923086166382 -1.5)
(0.09496311843395233 0.2518846094608307 -1.5)
(0.1016980037093163 0.2500799894332886 -1.5)
(0.108017198741436 0.2471332997083664 -1.5)
(0.1137287020683289 0.2431340962648392 -1.5)
(0.1186589971184731 0.2382037937641144 -1.5)
(0.1226582005620003 0.2324922978878021 -1.5)
(0.1256048977375031 0.2261731028556824 -1.5)
(0.08801718801259995 0.1724922955036163 -1.5)
(0.09496311843395233 0.1730999946594238 -1.5)
(0.1016980037093163 0.1749045997858047 -1.5)
(0.108017198741436 0.1778513044118881 -1.5)
(0.1137287020683289 0.1818504929542542 -1.5)
(0.1186589971184731 0.1867807954549789 -1.5)
(0.1226582005620003 0.1924923062324524 -1.5)
(0.1256048977375031 0.1988115012645721 -1.5)
(0.127409502863884 0.2055463939905167 -1.5)
(0.1280172020196915 0.2124923020601273 -1.5)
(0.127409502863884 0.2194381952285767 -1.5)
(0.03758770972490311 0.21631920337677 -1.5)
(0.03939231112599373 0.2230540961027145 -1.5)
(0.03464101999998093 0.2099999934434891 -1.5)
(0.03064177930355072 0.2042884975671768 -1.5)
(0.02571149915456772 0.199358195066452 -1.5)
(0.01999999955296516 0.195359006524086 -1.5)
(0.01368081010878086 0.1924123018980026 -1.5)
(0.006945927161723375 0.1906076967716217 -1.5)
(-7.347880950074885e-18 0.1899999976158142 -1.5)
(-0.006945927161723375 0.1906076967716217 -1.5)
(-0.01368081010878086 0.1924123018980026 -1.5)
(-0.01999999955296516 0.195359006524086 -1.5)
(-0.02571149915456772 0.199358195066452 -1.5)
(-0.03064177930355072 0.2042884975671768 -1.5)
(-0.03464101999998093 0.2099999934434891 -1.5)
(-0.03758770972490311 0.21631920337677 -1.5)
(-0.03939231112599373 0.2230540961027145 -1.5)
(-0.03999999910593033 0.2300000041723251 -1.5)
(0.03999999910593033 0.2300000041723251 -1.5)
(0.03939231112599373 0.2369458973407745 -1.5)
(0.03758770972490311 0.2436808049678802 -1.5)
(0.03464101999998093 0.25 -1.5)
(0.03064177930355072 0.2557114958763123 -1.5)
(0.02571149915456772 0.2606418132781982 -1.5)
(0.01999999955296516 0.2646409869194031 -1.5)
(0.01368081010878086 0.2675876915454865 -1.5)
(0.006945927161723375 0.2693923115730286 -1.5)
(2.44929399468355e-18 0.2700000107288361 -1.5)
(-0.006945927161723375 0.2693923115730286 -1.5)
(-0.01368081010878086 0.2675876915454865 -1.5)
(-0.01999999955296516 0.2646409869194031 -1.5)
(-0.02571149915456772 0.2606418132781982 -1.5)
(-0.03064177930355072 0.2557114958763123 -1.5)
(-0.03464101999998093 0.25 -1.5)
(-0.03758770972490311 0.2436808049678802 -1.5)
(-0.03939231112599373 0.2369458973407745 -1.5)
(-0.1186589971184731 0.2382037937641144 -1.5)
(-0.1226582005620003 0.2324922978878021 -1.5)
(-0.1137287020683289 0.2431340962648392 -1.5)
(-0.108017198741436 0.2471332997083664 -1.5)
(-0.1016980037093163 0.2500799894332886 -1.5)
(-0.09496311843395233 0.2518846094608307 -1.5)
(-0.08801718801259995 0.2524923086166382 -1.5)
(-0.08107127249240875 0.2518846094608307 -1.5)
(-0.07433638721704483 0.2500799894332886 -1.5)
(-0.06801719218492508 0.2471332997083664 -1.5)
(-0.06230568885803223 0.2431340962648392 -1.5)
(-0.05737540870904922 0.2382037937641144 -1.5)
(-0.05337617173790932 0.2324922978878021 -1.5)
(-0.05042948946356773 0.2261731028556824 -1.5)
(-0.1256048977375031 0.2261731028556824 -1.5)
(-0.127409502863884 0.2194381952285767 -1.5)
(-0.1280172020196915 0.2124923020601273 -1.5)
(-0.127409502863884 0.2055463939905167 -1.5)
(-0.1256048977375031 0.1988115012645721 -1.5)
(-0.1226582005620003 0.1924923062324524 -1.5)
(-0.1186589971184731 0.1867807954549789 -1.5)
(-0.1137287020683289 0.1818504929542542 -1.5)
(-0.108017198741436 0.1778513044118881 -1.5)
(-0.1016980037093163 0.1749045997858047 -1.5)
(-0.09496311843395233 0.1730999946594238 -1.5)
(-0.08801718801259995 0.1724922955036163 -1.5)
(-0.08107127249240875 0.1730999946594238 -1.5)
(-0.07433638721704483 0.1749045997858047 -1.5)
(-0.06801719218492508 0.1778513044118881 -1.5)
(-0.06230568885803223 0.1818504929542542 -1.5)
(-0.05737540870904922 0.1867807954549789 -1.5)
(-0.05337617173790932 0.1924923062324524 -1.5)
(-0.05042948946356773 0.1988115012645721 -1.5)
(-0.04862488061189651 0.2055463939905167 -1.5)
(-0.04801718890666962 0.2124923020601273 -1.5)
(-0.04862488061189651 0.2194381952285767 -1.5)
(-0.1426346004009247 0.1279934942722321 -1.5)
(-0.1369231045246124 0.1319928020238876 -1.5)
(-0.1319928020238876 0.1369231045246124 -1.5)
(-0.1279934942722321 0.1426346004009247 -1.5)
(-0.1250468045473099 0.1489537954330444 -1.5)
(-0.1556885987520218 0.1232422962784767 -1.5)
(-0.1489537954330444 0.1250468045473099 -1.5)
(-0.1972755938768387 0.1426346004009247 -1.5)
(-0.1932763010263443 0.1369231045246124 -1.5)
(-0.1883461028337479 0.1319928020238876 -1.5)
(-0.1826346069574356 0.1279934942722321 -1.5)
(-0.1763153970241547 0.1250468045473099 -1.5)
(-0.1695805042982101 0.1232422962784767 -1.5)
(-0.1626345962285995 0.1226345971226692 -1.5)
(-0.202026903629303 0.1556885987520218 -1.5)
(-0.2002222985029221 0.1489537954330444 -1.5)
(-0.2026346027851105 0.1626345962285995 -1.5)
(-0.202026903629303 0.1695805042982101 -1.5)
(-0.2002222985029221 0.1763153970241547 -1.5)
(-0.1972755938768387 0.1826346069574356 -1.5)
(-0.1932763010263443 0.1883461028337479 -1.5)
(-0.1883461028337479 0.1932763010263443 -1.5)
(-0.1826346069574356 0.1972755938768387 -1.5)
(-0.1763153970241547 0.2002222985029221 -1.5)
(-0.1695805042982101 0.202026903629303 -1.5)
(-0.1626345962285995 0.2026346027851105 -1.5)
(-0.1556885987520218 0.202026903629303 -1.5)
(-0.1489537954330444 0.2002222985029221 -1.5)
(-0.1426346004009247 0.1972755938768387 -1.5)
(-0.1369231045246124 0.1932763010263443 -1.5)
(-0.1319928020238876 0.1883461028337479 -1.5)
(-0.1279934942722321 0.1826346069574356 -1.5)
(-0.1250468045473099 0.1763153970241547 -1.5)
(-0.1232422962784767 0.1695805042982101 -1.5)
(-0.1226345971226692 0.1626345962285995 -1.5)
(-0.1232422962784767 0.1556885987520218 -1.5)
(-0.2194381952285767 0.04862488061189651 -1.5)
(-0.2124923020601273 0.04801718890666962 -1.5)
(-0.2055463939905167 0.04862488061189651 -1.5)
(-0.1988115012645721 0.05042948946356773 -1.5)
(-0.1924923062324524 0.05337617173790932 -1.5)
(-0.1867807954549789 0.05737540870904922 -1.5)
(-0.1818504929542542 0.06230568885803223 -1.5)
(-0.1778513044118881 0.06801719218492508 -1.5)
(-0.1749045997858047 0.07433638721704483 -1.5)
(-0.1730999946594238 0.08107127249240875 -1.5)
(-0.2324922978878021 0.05337617173790932 -1.5)
(-0.2261731028556824 0.05042948946356773 -1.5)
(-0.2382037937641144 0.05737540870904922 -1.5)
(-0.2431340962648392 0.06230568885803223 -1.5)
(-0.2471332997083664 0.06801719218492508 -1.5)
(-0.2500799894332886 0.07433638721704483 -1.5)
(-0.2518846094608307 0.08107127249240875 -1.5)
(-0.2524923086166382 0.08801718801259995 -1.5)
(-0.2518846094608307 0.09496311843395233 -1.5)
(-0.2500799894332886 0.1016980037093163 -1.5)
(-0.2471332997083664 0.108017198741436 -1.5)
(-0.2431340962648392 0.1137287020683289 -1.5)
(-0.2382037937641144 0.1186589971184731 -1.5)
(-0.2324922978878021 0.1226582005620003 -1.5)
(-0.2261731028556824 0.1256048977375031 -1.5)
(-0.1724922955036163 0.08801718801259995 -1.5)
(-0.1730999946594238 0.09496311843395233 -1.5)
(-0.1749045997858047 0.1016980037093163 -1.5)
(-0.1778513044118881 0.108017198741436 -1.5)
(-0.1818504929542542 0.1137287020683289 -1.5)
(-0.1867807954549789 0.1186589971184731 -1.5)
(-0.1924923062324524 0.1226582005620003 -1.5)
(-0.1988115012645721 0.1256048977375031 -1.5)
(-0.2055463939905167 0.127409502863884 -1.5)
(-0.2124923020601273 0.1280172020196915 -1.5)
(-0.2194381952285767 0.127409502863884 -1.5)
(-0.2369458973407745 0.03939231112599373 -1.5)
(-0.2436808049678802 0.03758770972490311 -1.5)
(-0.25 0.03464101999998093 -1.5)
(-0.2557114958763123 0.03064177930355072 -1.5)
(-0.2606418132781982 0.02571149915456772 -1.5)
(-0.2646409869194031 0.01999999955296516 -1.5)
(-0.2675876915454865 0.01368081010878086 -1.5)
(-0.2693923115730286 0.006945927161723375 -1.5)
(-0.2700000107288361 9.782221724546989e-15 -1.5)
(-0.2693923115730286 -0.006945927161723375 -1.5)
(-0.2675876915454865 -0.01368081010878086 -1.5)
(-0.2646409869194031 -0.01999999955296516 -1.5)
(-0.2606418132781982 -0.02571149915456772 -1.5)
(-0.2557114958763123 -0.03064177930355072 -1.5)
(-0.25 -0.03464101999998093 -1.5)
(-0.2436808049678802 -0.03758770972490311 -1.5)
(-0.2369458973407745 -0.03939231112599373 -1.5)
(-0.2300000041723251 -0.03999999910593033 -1.5)
(-0.2230540961027145 0.03939231112599373 -1.5)
(-0.2300000041723251 0.03999999910593033 -1.5)
(-0.21631920337677 0.03758770972490311 -1.5)
(-0.2099999934434891 0.03464101999998093 -1.5)
(-0.2042884975671768 0.03064177930355072 -1.5)
(-0.199358195066452 0.02571149915456772 -1.5)
(-0.195359006524086 0.01999999955296516 -1.5)
(-0.1924123018980026 0.01368081010878086 -1.5)
(-0.1906076967716217 0.006945927161723375 -1.5)
(-0.1899999976158142 9.777321638947123e-15 -1.5)
(-0.1906076967716217 -0.006945927161723375 -1.5)
(-0.1924123018980026 -0.01368081010878086 -1.5)
(-0.195359006524086 -0.01999999955296516 -1.5)
(-0.199358195066452 -0.02571149915456772 -1.5)
(-0.2042884975671768 -0.03064177930355072 -1.5)
(-0.2099999934434891 -0.03464101999998093 -1.5)
(-0.21631920337677 -0.03758770972490311 -1.5)
(-0.2230540961027145 -0.03939231112599373 -1.5)
(-0.2382037937641144 -0.1186589971184731 -1.5)
(-0.2324922978878021 -0.1226582005620003 -1.5)
(-0.2431340962648392 -0.1137287020683289 -1.5)
(-0.2471332997083664 -0.108017198741436 -1.5)
(-0.2500799894332886 -0.1016980037093163 -1.5)
(-0.2518846094608307 -0.09496311843395233 -1.5)
(-0.2524923086166382 -0.08801718801259995 -1.5)
(-0.2518846094608307 -0.08107127249240875 -1.5)
(-0.2500799894332886 -0.07433638721704483 -1.5)
(-0.2471332997083664 -0.06801719218492508 -1.5)
(-0.2431340962648392 -0.06230568885803223 -1.5)
(-0.2382037937641144 -0.05737540870904922 -1.5)
(-0.2324922978878021 -0.05337617173790932 -1.5)
(-0.2261731028556824 -0.05042948946356773 -1.5)
(-0.2261731028556824 -0.1256048977375031 -1.5)
(-0.2194381952285767 -0.127409502863884 -1.5)
(-0.2124923020601273 -0.1280172020196915 -1.5)
(-0.2055463939905167 -0.127409502863884 -1.5)
(-0.1988115012645721 -0.1256048977375031 -1.5)
(-0.1924923062324524 -0.1226582005620003 -1.5)
(-0.1867807954549789 -0.1186589971184731 -1.5)
(-0.1818504929542542 -0.1137287020683289 -1.5)
(-0.1778513044118881 -0.108017198741436 -1.5)
(-0.1749045997858047 -0.1016980037093163 -1.5)
(-0.1730999946594238 -0.09496311843395233 -1.5)
(-0.1724922955036163 -0.08801718801259995 -1.5)
(-0.1730999946594238 -0.08107127249240875 -1.5)
(-0.1749045997858047 -0.07433638721704483 -1.5)
(-0.1778513044118881 -0.06801719218492508 -1.5)
(-0.1818504929542542 -0.06230568885803223 -1.5)
(-0.1867807954549789 -0.05737540870904922 -1.5)
(-0.1924923062324524 -0.05337617173790932 -1.5)
(-0.1988115012645721 -0.05042948946356773 -1.5)
(-0.2055463939905167 -0.04862488061189651 -1.5)
(-0.2124923020601273 -0.04801718890666962 -1.5)
(-0.2194381952285767 -0.04862488061189651 -1.5)
(-0.1626345962285995 -0.2026346027851105 -1.5)
(-0.1556885987520218 -0.202026903629303 -1.5)
(-0.1695805042982101 -0.202026903629303 -1.5)
(-0.1763153970241547 -0.2002222985029221 -1.5)
(-0.1826346069574356 -0.1972755938768387 -1.5)
(-0.1883461028337479 -0.1932763010263443 -1.5)
(-0.1932763010263443 -0.1883461028337479 -1.5)
(-0.1972755938768387 -0.1826346069574356 -1.5)
(-0.2002222985029221 -0.1763153970241547 -1.5)
(-0.202026903629303 -0.1695805042982101 -1.5)
(-0.2026346027851105 -0.1626345962285995 -1.5)
(-0.202026903629303 -0.1556885987520218 -1.5)
(-0.2002222985029221 -0.1489537954330444 -1.5)
(-0.1972755938768387 -0.1426346004009247 -1.5)
(-0.1932763010263443 -0.1369231045246124 -1.5)
(-0.1883461028337479 -0.1319928020238876 -1.5)
(-0.1826346069574356 -0.1279934942722321 -1.5)
(-0.1763153970241547 -0.1250468045473099 -1.5)
(-0.1695805042982101 -0.1232422962784767 -1.5)
(-0.1626345962285995 -0.1226345971226692 -1.5)
(-0.1556885987520218 -0.1232422962784767 -1.5)
(-0.1489537954330444 -0.1250468045473099 -1.5)
(-0.1279934942722321 -0.1426346004009247 -1.5)
(-0.1319928020238876 -0.1369231045246124 -1.5)
(-0.1369231045246124 -0.1319928020238876 -1.5)
(-0.1426346004009247 -0.1279934942722321 -1.5)
(-0.1232422962784767 -0.1556885987520218 -1.5)
(-0.1250468045473099 -0.1489537954330444 -1.5)
(-0.1489537954330444 -0.2002222985029221 -1.5)
(-0.1426346004009247 -0.1972755938768387 -1.5)
(-0.1369231045246124 -0.1932763010263443 -1.5)
(-0.1319928020238876 -0.1883461028337479 -1.5)
(-0.1279934942722321 -0.1826346069574356 -1.5)
(-0.1250468045473099 -0.1763153970241547 -1.5)
(-0.1232422962784767 -0.1695805042982101 -1.5)
(-0.1226345971226692 -0.1626345962285995 -1.5)
(-0.05737540870904922 -0.2382037937641144 -1.5)
(-0.05337617173790932 -0.2324922978878021 -1.5)
(-0.06230568885803223 -0.2431340962648392 -1.5)
(-0.06801719218492508 -0.2471332997083664 -1.5)
(-0.07433638721704483 -0.2500799894332886 -1.5)
(-0.08107127249240875 -0.2518846094608307 -1.5)
(-0.08801718801259995 -0.2524923086166382 -1.5)
(-0.09496311843395233 -0.2518846094608307 -1.5)
(-0.1016980037093163 -0.2500799894332886 -1.5)
(-0.108017198741436 -0.2471332997083664 -1.5)
(-0.1137287020683289 -0.2431340962648392 -1.5)
(-0.1186589971184731 -0.2382037937641144 -1.5)
(-0.1226582005620003 -0.2324922978878021 -1.5)
(-0.1256048977375031 -0.2261731028556824 -1.5)
(-0.05042948946356773 -0.2261731028556824 -1.5)
(-0.04862488061189651 -0.2194381952285767 -1.5)
(-0.04801718890666962 -0.2124923020601273 -1.5)
(-0.04862488061189651 -0.2055463939905167 -1.5)
(-0.05042948946356773 -0.1988115012645721 -1.5)
(-0.05337617173790932 -0.1924923062324524 -1.5)
(-0.05737540870904922 -0.1867807954549789 -1.5)
(-0.06230568885803223 -0.1818504929542542 -1.5)
(-0.06801719218492508 -0.1778513044118881 -1.5)
(-0.07433638721704483 -0.1749045997858047 -1.5)
(-0.08107127249240875 -0.1730999946594238 -1.5)
(-0.08801718801259995 -0.1724922955036163 -1.5)
(-0.09496311843395233 -0.1730999946594238 -1.5)
(-0.1016980037093163 -0.1749045997858047 -1.5)
(-0.108017198741436 -0.1778513044118881 -1.5)
(-0.1137287020683289 -0.1818504929542542 -1.5)
(-0.1186589971184731 -0.1867807954549789 -1.5)
(-0.1226582005620003 -0.1924923062324524 -1.5)
(-0.1256048977375031 -0.1988115012645721 -1.5)
(-0.127409502863884 -0.2055463939905167 -1.5)
(-0.1280172020196915 -0.2124923020601273 -1.5)
(-0.127409502863884 -0.2194381952285767 -1.5)
(-0.03939231112599373 -0.2369458973407745 -1.5)
(-0.03758770972490311 -0.2436808049678802 -1.5)
(-0.03464101999998093 -0.25 -1.5)
(-0.03064177930355072 -0.2557114958763123 -1.5)
(-0.02571149915456772 -0.2606418132781982 -1.5)
(-0.01999999955296516 -0.2646409869194031 -1.5)
(-0.01368081010878086 -0.2675876915454865 -1.5)
(-0.006945927161723375 -0.2693923115730286 -1.5)
(-1.956199044167873e-14 -0.2700000107288361 -1.5)
(0.006945927161723375 -0.2693923115730286 -1.5)
(0.01368081010878086 -0.2675876915454865 -1.5)
(0.01999999955296516 -0.2646409869194031 -1.5)
(0.02571149915456772 -0.2606418132781982 -1.5)
(0.03064177930355072 -0.2557114958763123 -1.5)
(0.03464101999998093 -0.25 -1.5)
(0.03758770972490311 -0.2436808049678802 -1.5)
(0.03939231112599373 -0.2369458973407745 -1.5)
(0.03999999910593033 -0.2300000041723251 -1.5)
(-0.03939231112599373 -0.2230540961027145 -1.5)
(-0.03999999910593033 -0.2300000041723251 -1.5)
(-0.03758770972490311 -0.21631920337677 -1.5)
(-0.03464101999998093 -0.2099999934434891 -1.5)
(-0.03064177930355072 -0.2042884975671768 -1.5)
(-0.02571149915456772 -0.199358195066452 -1.5)
(-0.01999999955296516 -0.195359006524086 -1.5)
(-0.01368081010878086 -0.1924123018980026 -1.5)
(-0.006945927161723375 -0.1906076967716217 -1.5)
(-1.955220043487436e-14 -0.1899999976158142 -1.5)
(0.006945927161723375 -0.1906076967716217 -1.5)
(0.01368081010878086 -0.1924123018980026 -1.5)
(0.01999999955296516 -0.195359006524086 -1.5)
(0.02571149915456772 -0.199358195066452 -1.5)
(0.03064177930355072 -0.2042884975671768 -1.5)
(0.03464101999998093 -0.2099999934434891 -1.5)
(0.03758770972490311 -0.21631920337677 -1.5)
(0.03939231112599373 -0.2230540961027145 -1.5)
(0.09496311843395233 -0.2518846094608307 -1.5)
(0.1016980037093163 -0.2500799894332886 -1.5)
(0.108017198741436 -0.2471332997083664 -1.5)
(0.1137287020683289 -0.2431340962648392 -1.5)
(0.1186589971184731 -0.2382037937641144 -1.5)
(0.1226582005620003 -0.2324922978878021 -1.5)
(0.08107127249240875 -0.2518846094608307 -1.5)
(0.08801718801259995 -0.2524923086166382 -1.5)
(0.07433638721704483 -0.2500799894332886 -1.5)
(0.06801719218492508 -0.2471332997083664 -1.5)
(0.06230568885803223 -0.2431340962648392 -1.5)
(0.05737540870904922 -0.2382037937641144 -1.5)
(0.05337617173790932 -0.2324922978878021 -1.5)
(0.05042948946356773 -0.2261731028556824 -1.5)
(0.04862488061189651 -0.2194381952285767 -1.5)
(0.04801718890666962 -0.2124923020601273 -1.5)
(0.04862488061189651 -0.2055463939905167 -1.5)
(0.05042948946356773 -0.1988115012645721 -1.5)
(0.05337617173790932 -0.1924923062324524 -1.5)
(0.05737540870904922 -0.1867807954549789 -1.5)