/*--------------------------------*- C++ -*----------------------------------*\
| =========                 |                                                 |
| \\      /  F ield         | OpenFOAM: The Open Source CFD Toolbox           |
|  \\    /   O peration     | Version:  v1806                                 |
|   \\  /    A nd           | Web:      www.OpenFOAM.com                      |
|    \\/     M anipulation  |                                                 |
\*---------------------------------------------------------------------------*/
FoamFile
{
    version     2.0;
    format      ascii;
    class       dictionary;
    object      fvSolution;
}
// * * * * * * * * * * * * * * * * * * * * * * * * * * * * * * * * * * * * * //

solvers
{
    "pcorr.*"
    {
        solver           GAMG;
        smoother         GaussSeidel;
        tolerance        1e-5;
        relTol           0;

    }
    p
    {
        solver           GAMG;
        smoother         GaussSeidel;
        tolerance        1e-7;
        relTol           0.01;
    }
    pFinal
    {
        solver           GAMG;
        smoother         GaussSeidel;
        tolerance        1e-7;
        relTol           0;
    }
    "(U|k|omega)"
    {
        solver          smoothSolver;
        smoother        symGaussSeidel;
        tolerance       1e-06;
        relTol          0.1;
    }
    "(U|k|omega)Final"
    {
        $U;
        tolerance       1e-06;
        relTol          0;
    }

}

PIMPLE
{
    moveMeshOuterCorrectors true;
    
    momentumPredictor   true;
    correctPhi          true;
    turbOnFinalIterOnly false;

    nOuterCorrectors    2;
    nCorrectors         3;
    nNonOrthogonalCorrectors 1;
}
 
relaxationFactors
{
    equations
    {
        U               0.7;
        k               0.7;
        omega           0.7;

        UFinal          1;
        kFinal          1;
        omegaFinal      1;
    }
}

cache
{
    grad(U);
}

// ************************************************************************* //
