/*--------------------------------*- C++ -*----------------------------------*\
| =========                 |                                                 |
| \\      /  F ield         | OpenFOAM: The Open Source CFD Toolbox           |
|  \\    /   O peration     | Version:  v1806                                 |
|   \\  /    A nd           | Web:      www.OpenFOAM.com                      |
|    \\/     M anipulation  |                                                 |
\*---------------------------------------------------------------------------*/
FoamFile
{
    version     2.0;
    format      ascii;
    class       volScalarField;
    object      pAcoustic;
}
// * * * * * * * * * * * * * * * * * * * * * * * * * * * * * * * * * * * * * //

dimensions      [1 -1 -2 0 0 0 0];
internalField   uniform 0;

boundaryField
{
    inlet
    {
        type            waveTransmissive;
        field           pAcoustic;
        psi             thermo:psi;
        gamma           1.4;
        fieldInf        0;
        lInf            1;
        value           uniform 0;
    }

    outlet
    {
        type            waveTransmissive;
        field           pAcoustic;
        psi             thermo:psi;
        gamma           1.4;
        fieldInf        0;
        lInf            1;
        value           uniform 0;
    }

    bottomWall
    {
        type            waveTransmissive;
        field           pAcoustic;
        psi             thermo:psi;
        gamma           1.4;
        fieldInf        0;
        lInf            1;
        value           uniform 0;
    }

    topWall
    {
        type            waveTransmissive;
        field           pAcoustic;
        psi             thermo:psi;
        gamma           1.4;
        fieldInf        0;
        lInf            1;
        value           uniform 0;
    }

    prismWall
    {
        type            zeroGradient;
    }

    defaultFaces
    {
        type            empty;
    }
}

// ************************************************************************* //
