/*--------------------------------*- C++ -*----------------------------------*\
| =========                 |                                                 |
| \\      /  F ield         | OpenFOAM: The Open Source CFD Toolbox           |
|  \\    /   O peration     | Version:  v1806                                 |
|   \\  /    A nd           | Web:      www.OpenFOAM.com                      |
|    \\/     M anipulation  |                                                 |
\*---------------------------------------------------------------------------*/
FoamFile
{
    version     2.0;
    format      ascii;
    class       dictionary;
    location    "system";
    object      fvSolution;
}
// * * * * * * * * * * * * * * * * * * * * * * * * * * * * * * * * * * * * * //

solvers
{
    "rho.*"
    {
        solver          diagonal;
    }

    "p.*"
    {
        solver          smoothSolver;
        smoother        symGaussSeidel;
        tolerance       1e-08;
        relTol          0;
    }

    "(U|e|R).*"
    {
        $p;
        tolerance       1e-05;
    }

    "(k|epsilon).*"
    {
        $p;
        tolerance       1e-08;
    }

	pAcoustic
   {
	solver		PBiCGStab;
	preconditioner	DILU;
	tolerance 	1e-6;
	relTol		0;
   }
}

PIMPLE
{
    nOuterCorrectors 2;
    nCorrectors      1;
    nNonOrthogonalCorrectors 0;
}


// ************************************************************************* //
