/*--------------------------------*- C++ -*----------------------------------*\
  =========                 |
  \\      /  F ield         | OpenFOAM: The Open Source CFD Toolbox
   \\    /   O peration     | Website:  https://openfoam.org
    \\  /    A nd           | Version:  8
     \\/     M anipulation  |
\*---------------------------------------------------------------------------*/
FoamFile
{
    version     2.0;
    format      ascii;
    class       extendedFeatureEdgeMesh;
    location    "constant/extendedFeatureEdgeMesh";
    object      impeller.extendedFeatureEdgeMesh;
}
// * * * * * * * * * * * * * * * * * * * * * * * * * * * * * * * * * * * * * //

// points

340
(
(0.025 0.029999999 0.0049999999)
(0.025 0.029999999 -0.0049999999)
(0.025 -0.029999999 0.0049999999)
(0.025 -0.029999999 -0.0049999999)
(0.105 0.029999999 0.0049999999)
(0.105 -0.029999999 0.0049999999)
(0.105 0.029999999 -0.0049999999)
(0.105 -0.029999999 -0.0049999999)
(-0.0049999999 0.029999999 0.025)
(0.0049999999 0.029999999 0.025)
(-0.0049999999 -0.029999999 0.025)
(0.0049999999 -0.029999999 0.025)
(-0.0049999999 0.029999999 0.105)
(-0.0049999999 -0.029999999 0.105)
(0.0049999999 0.029999999 0.105)
(0.0049999999 -0.029999999 0.105)
(-0.025 0.029999999 -0.0049999999)
(-0.025 0.029999999 0.0049999999)
(-0.025 -0.029999999 -0.0049999999)
(-0.025 -0.029999999 0.0049999999)
(-0.105 0.029999999 -0.0049999999)
(-0.105 -0.029999999 -0.0049999999)
(-0.105 0.029999999 0.0049999999)
(-0.105 -0.029999999 0.0049999999)
(0.0049999999 0.029999999 -0.025)
(-0.0049999999 0.029999999 -0.025)
(0.0049999999 -0.029999999 -0.025)
(-0.0049999999 -0.029999999 -0.025)
(0.0049999999 0.029999999 -0.105)
(0.0049999999 -0.029999999 -0.105)
(-0.0049999999 0.029999999 -0.105)
(-0.0049999999 -0.029999999 -0.105)
(-0.034084272 -0.0049999999 -0.02093472)
(-0.0349098 -0.0049999999 -0.01952705)
(-0.034084272 0.0049999999 -0.02093472)
(-0.033202011 0.0049999999 -0.022307551)
(-0.033202011 -0.0049999999 -0.022307551)
(-0.03226449 0.0049999999 -0.02364325)
(-0.03226449 -0.0049999999 -0.02364325)
(-0.031273261 0.0049999999 -0.024939589)
(-0.031273261 -0.0049999999 -0.024939589)
(-0.03022998 0.0049999999 -0.026194431)
(-0.03022998 -0.0049999999 -0.026194431)
(-0.029136389 0.0049999999 -0.02740567)
(-0.029136389 -0.0049999999 -0.02740567)
(-0.02799431 0.0049999999 -0.028571291)
(-0.02799431 -0.0049999999 -0.028571291)
(-0.02680563 0.0049999999 -0.02968936)
(-0.02680563 -0.0049999999 -0.02968936)
(-0.02557233 0.0049999999 -0.03075802)
(-0.02557233 -0.0049999999 -0.03075802)
(-0.02429647 0.0049999999 -0.031775478)
(-0.02429647 -0.0049999999 -0.031775478)
(-0.02298018 0.0049999999 -0.03274006)
(-0.02298018 -0.0049999999 -0.03274006)
(-0.021625631 0.0049999999 -0.033650141)
(-0.021625631 -0.0049999999 -0.033650141)
(-0.02023509 0.0049999999 -0.03450422)
(-0.02023509 -0.0049999999 -0.03450422)
(-0.018810879 0.0049999999 -0.035300858)
(-0.018810879 -0.0049999999 -0.035300858)
(-0.017355351 0.0049999999 -0.03603876)
(-0.017355351 -0.0049999999 -0.03603876)
(-0.01587094 0.0049999999 -0.036716659)
(-0.01587094 -0.0049999999 -0.036716659)
(-0.01436011 0.0049999999 -0.037333459)
(-0.01436011 -0.0049999999 -0.037333459)
(-0.01282538 0.0049999999 -0.037888121)
(-0.01282538 -0.0049999999 -0.037888121)
(-0.0112693 0.0049999999 -0.038379721)
(-0.0112693 -0.0049999999 -0.038379721)
(-0.0096944692 0.0049999999 -0.038807441)
(-0.0096944692 -0.0049999999 -0.038807441)
(-0.0081035011 0.0049999999 -0.039170571)
(-0.0081035011 -0.0049999999 -0.039170571)
(-0.006499046 0.0049999999 -0.039468501)
(-0.006499046 -0.0049999999 -0.039468501)
(-0.0048837732 0.0049999999 -0.039700739)
(-0.0048837732 -0.0049999999 -0.039700739)
(-0.003260371 0.0049999999 -0.039866898)
(-0.003260371 -0.0049999999 -0.039866898)
(-0.001631543 0.0049999999 -0.03996671)
(-0.001631543 -0.0049999999 -0.03996671)
(0 0.0049999999 -0.039999999)
(0 -0.0049999999 -0.039999999)
(0.001631543 0.0049999999 -0.03996671)
(-0.0349098 0.0049999999 -0.01952705)
(-0.035677232 -0.0049999999 -0.01808688)
(-0.035677232 0.0049999999 -0.01808688)
(-0.036385279 -0.0049999999 -0.0166166)
(-0.036385279 0.0049999999 -0.0166166)
(-0.037032772 -0.0049999999 -0.01511867)
(-0.037032772 0.0049999999 -0.01511867)
(-0.037618618 -0.0049999999 -0.01359557)
(-0.037618618 0.0049999999 -0.01359557)
(-0.03814185 -0.0049999999 -0.01204985)
(-0.03814185 0.0049999999 -0.01204985)
(-0.038601611 -0.0049999999 -0.01048407)
(-0.038601611 0.0049999999 -0.01048407)
(-0.038997121 -0.0049999999 -0.008900837)
(-0.038997121 0.0049999999 -0.008900837)
(-0.039327711 -0.0049999999 -0.0073027932)
(-0.039327711 0.0049999999 -0.0073027932)
(-0.039592858 -0.0049999999 -0.0056925942)
(-0.039592858 0.0049999999 -0.0056925942)
(-0.039792102 -0.0049999999 -0.004072919)
(-0.039792102 0.0049999999 -0.004072919)
(-0.03992511 -0.0049999999 -0.0024464659)
(-0.03992511 0.0049999999 -0.0024464659)
(-0.039991681 -0.0049999999 -0.00081594149)
(-0.039991681 0.0049999999 -0.00081594149)
(-0.039991681 -0.0049999999 0.00081594149)
(-0.039991681 0.0049999999 0.00081594149)
(-0.03992511 -0.0049999999 0.0024464659)
(-0.03992511 0.0049999999 0.0024464659)
(-0.039792102 -0.0049999999 0.004072919)
(-0.039792102 0.0049999999 0.004072919)
(-0.039592858 -0.0049999999 0.0056925942)
(-0.039592858 0.0049999999 0.0056925942)
(-0.039327711 -0.0049999999 0.0073027932)
(-0.039327711 0.0049999999 0.0073027932)
(-0.038997121 -0.0049999999 0.008900837)
(-0.038997121 0.0049999999 0.008900837)
(-0.038601611 -0.0049999999 0.01048407)
(-0.038601611 0.0049999999 0.01048407)
(-0.03814185 -0.0049999999 0.01204985)
(-0.03814185 0.0049999999 0.01204985)
(-0.037618618 -0.0049999999 0.01359557)
(-0.037618618 0.0049999999 0.01359557)
(-0.037032772 -0.0049999999 0.01511867)
(-0.037032772 0.0049999999 0.01511867)
(-0.036385279 -0.0049999999 0.0166166)
(-0.036385279 0.0049999999 0.0166166)
(-0.035677232 -0.0049999999 0.01808688)
(-0.035677232 0.0049999999 0.01808688)
(-0.0349098 -0.0049999999 0.01952705)
(-0.0349098 0.0049999999 0.01952705)
(-0.034084272 -0.0049999999 0.02093472)
(-0.034084272 0.0049999999 0.02093472)
(-0.033202011 -0.0049999999 0.022307551)
(-0.033202011 0.0049999999 0.022307551)
(-0.03226449 -0.0049999999 0.02364325)
(-0.03226449 0.0049999999 0.02364325)
(-0.031273261 -0.0049999999 0.024939589)
(-0.031273261 0.0049999999 0.024939589)
(-0.03022998 -0.0049999999 0.026194431)
(-0.03022998 0.0049999999 0.026194431)
(-0.029136389 -0.0049999999 0.02740567)
(-0.029136389 0.0049999999 0.02740567)
(-0.02799431 -0.0049999999 0.028571291)
(-0.02799431 0.0049999999 0.028571291)
(-0.02680563 -0.0049999999 0.02968936)
(-0.02680563 0.0049999999 0.02968936)
(-0.02557233 -0.0049999999 0.03075802)
(-0.02557233 0.0049999999 0.03075802)
(-0.02429647 -0.0049999999 0.031775478)
(-0.02429647 0.0049999999 0.031775478)
(-0.02298018 -0.0049999999 0.03274006)
(-0.02298018 0.0049999999 0.03274006)
(-0.021625631 -0.0049999999 0.033650141)
(-0.021625631 0.0049999999 0.033650141)
(-0.02023509 -0.0049999999 0.03450422)
(-0.02023509 0.0049999999 0.03450422)
(-0.018810879 -0.0049999999 0.035300858)
(-0.018810879 0.0049999999 0.035300858)
(-0.017355351 -0.0049999999 0.03603876)
(-0.017355351 0.0049999999 0.03603876)
(-0.01587094 -0.0049999999 0.036716659)
(-0.01587094 0.0049999999 0.036716659)
(-0.01436011 -0.0049999999 0.037333459)
(-0.01436011 0.0049999999 0.037333459)
(-0.01282538 -0.0049999999 0.037888121)
(-0.01282538 0.0049999999 0.037888121)
(-0.0112693 -0.0049999999 0.038379721)
(-0.0112693 0.0049999999 0.038379721)
(-0.0096944692 -0.0049999999 0.038807441)
(-0.0096944692 0.0049999999 0.038807441)
(-0.0081035011 -0.0049999999 0.039170571)
(-0.0081035011 0.0049999999 0.039170571)
(-0.006499046 -0.0049999999 0.039468501)
(-0.006499046 0.0049999999 0.039468501)
(-0.0048837732 -0.0049999999 0.039700739)
(-0.0048837732 0.0049999999 0.039700739)
(-0.003260371 -0.0049999999 0.039866898)
(-0.003260371 0.0049999999 0.039866898)
(-0.001631543 -0.0049999999 0.03996671)
(-0.001631543 0.0049999999 0.03996671)
(1.469576e-17 -0.0049999999 0.039999999)
(4.8985872e-18 0.0049999999 0.039999999)
(0.001631543 -0.0049999999 0.03996671)
(0.001631543 0.0049999999 0.03996671)
(0.003260371 -0.0049999999 0.039866898)
(0.003260371 0.0049999999 0.039866898)
(0.0048837732 -0.0049999999 0.039700739)
(0.0048837732 0.0049999999 0.039700739)
(0.006499046 -0.0049999999 0.039468501)
(0.006499046 0.0049999999 0.039468501)
(0.0081035011 -0.0049999999 0.039170571)
(0.0081035011 0.0049999999 0.039170571)
(0.0096944692 -0.0049999999 0.038807441)
(0.0096944692 0.0049999999 0.038807441)
(0.0112693 -0.0049999999 0.038379721)
(0.0112693 0.0049999999 0.038379721)
(0.01282538 -0.0049999999 0.037888121)
(0.01282538 0.0049999999 0.037888121)
(0.01436011 -0.0049999999 0.037333459)
(0.01436011 0.0049999999 0.037333459)
(0.01587094 -0.0049999999 0.036716659)
(0.01587094 0.0049999999 0.036716659)
(0.017355351 -0.0049999999 0.03603876)
(0.017355351 0.0049999999 0.03603876)
(0.018810879 -0.0049999999 0.035300858)
(0.018810879 0.0049999999 0.035300858)
(0.02023509 -0.0049999999 0.03450422)
(0.02023509 0.0049999999 0.03450422)
(0.021625631 -0.0049999999 0.033650141)
(0.021625631 0.0049999999 0.033650141)
(0.02298018 -0.0049999999 0.03274006)
(0.02298018 0.0049999999 0.03274006)
(0.02429647 -0.0049999999 0.031775478)
(0.02429647 0.0049999999 0.031775478)
(0.02557233 -0.0049999999 0.03075802)
(0.02557233 0.0049999999 0.03075802)
(0.02680563 -0.0049999999 0.02968936)
(0.02680563 0.0049999999 0.02968936)
(0.02799431 -0.0049999999 0.028571291)
(0.02799431 0.0049999999 0.028571291)
(0.029136389 -0.0049999999 0.02740567)
(0.029136389 0.0049999999 0.02740567)
(0.03022998 -0.0049999999 0.026194431)
(0.03022998 0.0049999999 0.026194431)
(0.031273261 -0.0049999999 0.024939589)
(0.031273261 0.0049999999 0.024939589)
(0.03226449 -0.0049999999 0.02364325)
(0.03226449 0.0049999999 0.02364325)
(0.033202011 -0.0049999999 0.022307551)
(0.033202011 0.0049999999 0.022307551)
(0.034084272 -0.0049999999 0.02093472)
(0.034084272 0.0049999999 0.02093472)
(0.0349098 -0.0049999999 0.01952705)
(0.0349098 0.0049999999 0.01952705)
(0.035677232 -0.0049999999 0.01808688)
(0.035677232 0.0049999999 0.01808688)
(0.036385279 -0.0049999999 0.0166166)
(0.036385279 0.0049999999 0.0166166)
(0.037032772 -0.0049999999 0.01511867)
(0.037032772 0.0049999999 0.01511867)
(0.037618618 -0.0049999999 0.01359557)
(0.037618618 0.0049999999 0.01359557)
(0.03814185 -0.0049999999 0.01204985)
(0.03814185 0.0049999999 0.01204985)
(0.038601611 -0.0049999999 0.01048407)
(0.038601611 0.0049999999 0.01048407)
(0.038997121 -0.0049999999 0.008900837)
(0.038997121 0.0049999999 0.008900837)
(0.039327711 -0.0049999999 0.0073027932)
(0.039327711 0.0049999999 0.0073027932)
(0.039592858 -0.0049999999 0.0056925942)
(0.039592858 0.0049999999 0.0056925942)
(0.039792102 -0.0049999999 0.004072919)
(0.039792102 0.0049999999 0.004072919)
(0.03992511 -0.0049999999 0.0024464659)
(0.03992511 0.0049999999 0.0024464659)
(0.039991681 -0.0049999999 0.00081594149)
(0.039991681 0.0049999999 0.00081594149)
(0.039991681 -0.0049999999 -0.00081594149)
(0.039991681 0.0049999999 -0.00081594149)
(0.03992511 -0.0049999999 -0.0024464659)
(0.03992511 0.0049999999 -0.0024464659)
(0.039792102 -0.0049999999 -0.004072919)
(0.039792102 0.0049999999 -0.004072919)
(0.039592858 -0.0049999999 -0.0056925942)
(0.039592858 0.0049999999 -0.0056925942)
(0.039327711 -0.0049999999 -0.0073027932)
(0.039327711 0.0049999999 -0.0073027932)
(0.038997121 -0.0049999999 -0.008900837)
(0.038997121 0.0049999999 -0.008900837)
(0.038601611 -0.0049999999 -0.01048407)
(0.038601611 0.0049999999 -0.01048407)
(0.03814185 -0.0049999999 -0.01204985)
(0.03814185 0.0049999999 -0.01204985)
(0.037618618 -0.0049999999 -0.01359557)
(0.037618618 0.0049999999 -0.01359557)
(0.037032772 -0.0049999999 -0.01511867)
(0.037032772 0.0049999999 -0.01511867)
(0.036385279 -0.0049999999 -0.0166166)
(0.036385279 0.0049999999 -0.0166166)
(0.035677232 -0.0049999999 -0.01808688)
(0.035677232 0.0049999999 -0.01808688)
(0.0349098 -0.0049999999 -0.01952705)
(0.0349098 0.0049999999 -0.01952705)
(0.034084272 -0.0049999999 -0.02093472)
(0.034084272 0.0049999999 -0.02093472)
(0.033202011 -0.0049999999 -0.022307551)
(0.033202011 0.0049999999 -0.022307551)
(0.03226449 -0.0049999999 -0.02364325)
(0.03226449 0.0049999999 -0.02364325)
(0.031273261 -0.0049999999 -0.024939589)
(0.031273261 0.0049999999 -0.024939589)
(0.03022998 -0.0049999999 -0.026194431)
(0.03022998 0.0049999999 -0.026194431)
(0.029136389 -0.0049999999 -0.02740567)
(0.029136389 0.0049999999 -0.02740567)
(0.02799431 -0.0049999999 -0.028571291)
(0.02799431 0.0049999999 -0.028571291)
(0.02680563 -0.0049999999 -0.02968936)
(0.02680563 0.0049999999 -0.02968936)
(0.02557233 -0.0049999999 -0.03075802)
(0.02557233 0.0049999999 -0.03075802)
(0.02429647 -0.0049999999 -0.031775478)
(0.02429647 0.0049999999 -0.031775478)
(0.02298018 -0.0049999999 -0.03274006)
(0.02298018 0.0049999999 -0.03274006)
(0.021625631 -0.0049999999 -0.033650141)
(0.021625631 0.0049999999 -0.033650141)
(0.02023509 -0.0049999999 -0.03450422)
(0.02023509 0.0049999999 -0.03450422)
(0.018810879 -0.0049999999 -0.035300858)
(0.018810879 0.0049999999 -0.035300858)
(0.017355351 -0.0049999999 -0.03603876)
(0.017355351 0.0049999999 -0.03603876)
(0.01587094 -0.0049999999 -0.036716659)
(0.01587094 0.0049999999 -0.036716659)
(0.01436011 -0.0049999999 -0.037333459)
(0.01436011 0.0049999999 -0.037333459)
(0.01282538 -0.0049999999 -0.037888121)
(0.01282538 0.0049999999 -0.037888121)
(0.0112693 -0.0049999999 -0.038379721)
(0.0112693 0.0049999999 -0.038379721)
(0.0096944692 -0.0049999999 -0.038807441)
(0.0096944692 0.0049999999 -0.038807441)
(0.0081035011 -0.0049999999 -0.039170571)
(0.0081035011 0.0049999999 -0.039170571)
(0.006499046 -0.0049999999 -0.039468501)
(0.006499046 0.0049999999 -0.039468501)
(0.0048837732 -0.0049999999 -0.039700739)
(0.0048837732 0.0049999999 -0.039700739)
(0.003260371 -0.0049999999 -0.039866898)
(0.003260371 0.0049999999 -0.039866898)
(0.001631543 -0.0049999999 -0.03996671)
)

// edges

356
(
(32 33)
(34 35)
(36 32)
(35 37)
(38 36)
(37 39)
(40 38)
(39 41)
(42 40)
(41 43)
(44 42)
(43 45)
(46 44)
(45 47)
(48 46)
(47 49)
(50 48)
(49 51)
(52 50)
(51 53)
(54 52)
(53 55)
(56 54)
(55 57)
(58 56)
(57 59)
(60 58)
(59 61)
(62 60)
(61 63)
(64 62)
(63 65)
(66 64)
(65 67)
(68 66)
(67 69)
(70 68)
(69 71)
(72 70)
(71 73)
(74 72)
(73 75)
(76 74)
(75 77)
(78 76)
(77 79)
(80 78)
(79 81)
(82 80)
(81 83)
(84 82)
(83 85)
(86 34)
(33 87)
(88 86)
(87 89)
(90 88)
(89 91)
(92 90)
(91 93)
(94 92)
(93 95)
(96 94)
(95 97)
(98 96)
(97 99)
(100 98)
(99 101)
(102 100)
(101 103)
(104 102)
(103 105)
(106 104)
(105 107)
(108 106)
(107 109)
(110 108)
(109 111)
(112 110)
(111 113)
(114 112)
(113 115)
(116 114)
(115 117)
(118 116)
(117 119)
(120 118)
(119 121)
(122 120)
(121 123)
(124 122)
(123 125)
(126 124)
(125 127)
(128 126)
(127 129)
(130 128)
(129 131)
(132 130)
(131 133)
(134 132)
(133 135)
(136 134)
(135 137)
(138 136)
(137 139)
(140 138)
(139 141)
(142 140)
(141 143)
(144 142)
(143 145)
(146 144)
(145 147)
(148 146)
(147 149)
(150 148)
(149 151)
(152 150)
(151 153)
(154 152)
(153 155)
(156 154)
(155 157)
(158 156)
(157 159)
(160 158)
(159 161)
(162 160)
(161 163)
(164 162)
(163 165)
(166 164)
(165 167)
(168 166)
(167 169)
(170 168)
(169 171)
(172 170)
(171 173)
(174 172)
(173 175)
(176 174)
(175 177)
(178 176)
(177 179)
(180 178)
(179 181)
(182 180)
(181 183)
(184 182)
(183 185)
(186 184)
(185 187)
(188 186)
(187 189)
(190 188)
(189 191)
(192 190)
(191 193)
(194 192)
(193 195)
(196 194)
(195 197)
(198 196)
(197 199)
(200 198)
(199 201)
(202 200)
(201 203)
(204 202)
(203 205)
(206 204)
(205 207)
(208 206)
(207 209)
(210 208)
(209 211)
(212 210)
(211 213)
(214 212)
(213 215)
(216 214)
(215 217)
(218 216)
(217 219)
(220 218)
(219 221)
(222 220)
(221 223)
(224 222)
(223 225)
(226 224)
(225 227)
(228 226)
(227 229)
(230 228)
(229 231)
(232 230)
(231 233)
(234 232)
(233 235)
(236 234)
(235 237)
(238 236)
(237 239)
(240 238)
(239 241)
(242 240)
(241 243)
(244 242)
(243 245)
(246 244)
(245 247)
(248 246)
(247 249)
(250 248)
(249 251)
(252 250)
(251 253)
(254 252)
(253 255)
(256 254)
(255 257)
(258 256)
(257 259)
(260 258)
(259 261)
(262 260)
(261 263)
(264 262)
(263 265)
(266 264)
(265 267)
(268 266)
(267 269)
(270 268)
(269 271)
(272 270)
(271 273)
(274 272)
(273 275)
(276 274)
(275 277)
(278 276)
(277 279)
(280 278)
(279 281)
(282 280)
(281 283)
(284 282)
(283 285)
(286 284)
(285 287)
(288 286)
(287 289)
(290 288)
(289 291)
(292 290)
(291 293)
(294 292)
(293 295)
(296 294)
(295 297)
(298 296)
(297 299)
(300 298)
(299 301)
(302 300)
(301 303)
(304 302)
(303 305)
(306 304)
(305 307)
(308 306)
(307 309)
(310 308)
(309 311)
(312 310)
(311 313)
(314 312)
(313 315)
(316 314)
(315 317)
(318 316)
(317 319)
(320 318)
(319 321)
(322 320)
(321 323)
(324 322)
(323 325)
(326 324)
(325 327)
(328 326)
(327 329)
(330 328)
(329 331)
(332 330)
(331 333)
(334 332)
(333 335)
(336 334)
(335 337)
(338 336)
(337 339)
(85 338)
(339 84)
(2 0)
(0 1)
(1 3)
(3 2)
(5 4)
(4 0)
(2 5)
(7 6)
(6 4)
(5 7)
(1 6)
(7 3)
(10 8)
(8 9)
(9 11)
(11 10)
(13 12)
(12 8)
(10 13)
(15 14)
(14 12)
(13 15)
(9 14)
(15 11)
(18 16)
(16 17)
(17 19)
(19 18)
(21 20)
(20 16)
(18 21)
(23 22)
(22 20)
(21 23)
(17 22)
(23 19)
(26 24)
(24 25)
(25 27)
(27 26)
(29 28)
(28 24)
(26 29)
(31 30)
(30 28)
(29 31)
(25 30)
(31 27)
)

// concaveStart mixedStart nonFeatureStart
32 32 32
// internalStart flatStart openStart multipleStart
356 356 356 356
// normals

664
(
(-0.86260645 0 -0.50587559)
(0 -1 0)
(-0.84125475 0 -0.54063892)
(0 1 0)
(-0.84125475 0 -0.54063892)
(0 -1 0)
(-0.8185023 0 -0.57450324)
(0 1 -0)
(-0.8185023 0 -0.57450324)
(0 -1 0)
(-0.7943843 0 -0.60741549)
(0 1 0)
(-0.7943843 0 -0.60741549)
(0 -1 0)
(-0.76895034 0 -0.63930851)
(0 1 0)
(-0.76895034 0 -0.63930851)
(0 -1 0)
(-0.74223422 0 -0.67014055)
(0 1 -0)
(-0.74223422 0 -0.67014055)
(0 -1 0)
(-0.71428316 0 -0.69985682)
(0 1 0)
(-0.71428316 0 -0.69985682)
(0 -1 0)
(-0.6851409 0 -0.72841056)
(0 1 0)
(-0.6851409 0 -0.72841056)
(0 -1 0)
(-0.65486018 0 -0.75575005)
(0 1 -0)
(-0.65486018 0 -0.75575005)
(0 -1 0)
(-0.62348775 0 -0.78183312)
(0 1 0)
(-0.62348775 0 -0.78183312)
(0 -1 0)
(-0.59108563 0 -0.80660881)
(0 1 0)
(-0.59108563 0 -0.80660881)
(0 -1 0)
(-0.55768675 0 -0.8300515)
(0 1 -0)
(-0.55768675 0 -0.8300515)
(0 -1 0)
(-0.52336882 0 -0.85210626)
(0 1 0)
(-0.52336882 0 -0.85210626)
(0 -1 0)
(-0.48817448 0 -0.87274606)
(0 1 0)
(-0.48817448 0 -0.87274606)
(0 -1 0)
(-0.45217637 0 -0.89192855)
(0 1 -0)
(-0.45217637 0 -0.89192855)
(0 -1 0)
(-0.41541035 0 -0.90963412)
(0 1 0)
(-0.41541035 0 -0.90963412)
(0 -1 0)
(-0.37796784 0 -0.92581872)
(0 1 0)
(-0.37796784 0 -0.92581872)
(0 -1 0)
(-0.3398906 0 -0.94046498)
(0 1 -0)
(-0.3398906 0 -0.94046498)
(0 -1 0)
(-0.30124663 0 -0.95354626)
(0 1 0)
(-0.30124663 0 -0.95354626)
(0 -1 0)
(-0.26210191 0 -0.9650402)
(0 1 0)
(-0.26210191 0 -0.9650402)
(0 -1 0)
(-0.22252212 0 -0.97492764)
(0 1 -0)
(-0.22252212 0 -0.97492764)
(0 -1 0)
(-0.18256842 0 -0.98319315)
(0 1 0)
(-0.18256842 0 -0.98319315)
(0 -1 0)
(-0.14231313 0 -0.98982169)
(0 1 0)
(-0.14231313 0 -0.98982169)
(0 -1 0)
(-0.10182047 0 -0.99480279)
(0 1 -0)
(-0.10182047 0 -0.99480279)
(0 -1 0)
(-0.061163506 0 -0.99812776)
(0 1 0)
(-0.061163506 0 -0.99812776)
(0 -1 0)
(-0.020399258 0 -0.99979191)
(0 1 0)
(-0.020399258 0 -0.99979191)
(0 -1 0)
(0.020399258 0 -0.99979191)
(0 1 0)
(-0.86260645 0 -0.50587559)
(0 1 0)
(-0.88252034 -0 -0.47027422)
(0 -1 0)
(-0.88252034 0 -0.47027422)
(0 1 -0)
(-0.9009695 -0 -0.43388244)
(0 -1 0)
(-0.9009695 0 -0.43388244)
(0 1 0)
(-0.91791524 -0 -0.39677652)
(0 -1 0)
(-0.91791524 0 -0.39677652)
(0 1 0)
(-0.9333376 -0 -0.35899988)
(0 -1 0)
(-0.9333376 0 -0.35899988)
(0 1 -0)
(-0.94720383 -0 -0.32063203)
(0 -1 0)
(-0.94720383 0 -0.32063203)
(0 1 0)
(-0.95949201 -0 -0.28173583)
(0 -1 0)
(-0.95949201 0 -0.28173583)
(0 1 0)
(-0.97018542 -0 -0.24236387)
(0 -1 0)
(-0.97018542 0 -0.24236387)
(0 1 -0)
(-0.97926529 -0 -0.20258207)
(0 -1 0)
(-0.97926529 0 -0.20258207)
(0 1 0)
(-0.98671193 -0 -0.16247944)
(0 -1 0)
(-0.98671193 0 -0.16247944)
(0 1 0)
(-0.99251853 -0 -0.1220941)
(0 -1 0)
(-0.99251853 0 -0.1220941)
(0 1 -0)
(-0.99667287 -0 -0.081505719)
(0 -1 0)
(-0.99667287 0 -0.081505719)
(0 1 0)
(-0.99916758 -0 -0.040793945)
(0 -1 0)
(-0.99916758 0 -0.040793945)
(0 1 0)
(-1 0 0)
(-0 -1 0)
(-1 0 0)
(0 1 0)
(-0.99916758 0 0.040793945)
(0 -1 -0)
(-0.99916758 0 0.040793945)
(0 1 0)
(-0.99667287 0 0.081505719)
(0 -1 0)
(-0.99667287 0 0.081505719)
(0 1 0)
(-0.99251853 0 0.1220941)
(0 -1 0)
(-0.99251853 0 0.1220941)
(-0 1 0)
(-0.98671193 0 0.16247944)
(0 -1 -0)
(-0.98671193 0 0.16247944)
(0 1 0)
(-0.97926529 0 0.20258207)
(0 -1 0)
(-0.97926529 0 0.20258207)
(0 1 0)
(-0.97018542 0 0.24236387)
(0 -1 0)
(-0.97018542 0 0.24236387)
(-0 1 0)
(-0.95949201 0 0.28173583)
(0 -1 -0)
(-0.95949201 0 0.28173583)
(0 1 0)
(-0.94720383 0 0.32063203)
(0 -1 0)
(-0.94720383 0 0.32063203)
(0 1 0)
(-0.9333376 0 0.35899988)
(0 -1 0)
(-0.9333376 0 0.35899988)
(-0 1 0)
(-0.91791524 0 0.39677652)
(0 -1 -0)
(-0.91791524 0 0.39677652)
(0 1 0)
(-0.9009695 0 0.43388244)
(0 -1 0)
(-0.9009695 0 0.43388244)
(0 1 0)
(-0.88252034 0 0.47027422)
(0 -1 0)
(-0.88252034 0 0.47027422)
(-0 1 0)
(-0.86260645 0 0.50587559)
(0 -1 -0)
(-0.86260645 0 0.50587559)
(0 1 0)
(-0.84125475 0 0.54063892)
(0 -1 0)
(-0.84125475 0 0.54063892)
(0 1 0)
(-0.8185023 0 0.57450324)
(0 -1 0)
(-0.8185023 0 0.57450324)
(-0 1 0)
(-0.7943843 0 0.60741549)
(0 -1 -0)
(-0.7943843 0 0.60741549)
(0 1 0)
(-0.76895034 0 0.63930851)
(0 -1 0)
(-0.76895034 0 0.63930851)
(0 1 0)
(-0.74223422 0 0.67014055)
(0 -1 0)
(-0.74223422 0 0.67014055)
(-0 1 0)
(-0.71428316 0 0.69985682)
(0 -1 -0)
(-0.71428316 0 0.69985682)
(0 1 0)
(-0.6851409 0 0.72841056)
(0 -1 0)
(-0.6851409 0 0.72841056)
(0 1 0)
(-0.65486018 0 0.75575005)
(0 -1 0)
(-0.65486018 0 0.75575005)
(-0 1 0)
(-0.62348775 0 0.78183312)
(0 -1 -0)
(-0.62348775 0 0.78183312)
(0 1 0)
(-0.59108563 0 0.80660881)
(0 -1 0)
(-0.59108563 0 0.80660881)
(0 1 0)
(-0.55768675 0 0.8300515)
(0 -1 0)
(-0.55768675 0 0.8300515)
(-0 1 0)
(-0.52336882 0 0.85210626)
(0 -1 -0)
(-0.52336882 0 0.85210626)
(0 1 0)
(-0.48817448 0 0.87274606)
(0 -1 0)
(-0.48817448 0 0.87274606)
(0 1 0)
(-0.45217637 0 0.89192855)
(0 -1 0)
(-0.45217637 0 0.89192855)
(-0 1 0)
(-0.41541035 0 0.90963412)
(0 -1 -0)
(-0.41541035 0 0.90963412)
(0 1 0)
(-0.37796784 0 0.92581872)
(0 -1 0)
(-0.37796784 0 0.92581872)
(0 1 0)
(-0.3398906 0 0.94046498)
(0 -1 0)
(-0.3398906 0 0.94046498)
(-0 1 0)
(-0.30124663 0 0.95354626)
(0 -1 -0)
(-0.30124663 0 0.95354626)
(0 1 0)
(-0.26210191 0 0.9650402)
(0 -1 0)
(-0.26210191 0 0.9650402)
(0 1 0)
(-0.22252212 0 0.97492764)
(0 -1 0)
(-0.22252212 0 0.97492764)
(-0 1 0)
(-0.18256842 0 0.98319315)
(0 -1 -0)
(-0.18256842 0 0.98319315)
(0 1 0)
(-0.14231313 0 0.98982169)
(0 -1 0)
(-0.14231313 0 0.98982169)
(0 1 0)
(-0.10182047 0 0.99480279)
(0 -1 0)
(-0.10182047 0 0.99480279)
(-0 1 0)
(-0.061163506 0 0.99812776)
(0 -1 -0)
(-0.061163506 0 0.99812776)
(0 1 0)
(-0.020399258 0 0.99979191)
(0 -1 0)
(-0.020399258 -1.9869984e-17 0.99979191)
(0 1 -0)
(0.020399258 1.9985506e-17 0.99979191)
(0 -1 0)
(0.020399258 0 0.99979191)
(0 1 0)
(0.061163506 0 0.99812776)
(0 -1 0)
(0.061163506 0 0.99812776)
(0 1 0)
(0.10182047 0 0.99480279)
(-0 -1 0)
(0.10182047 0 0.99480279)
(0 1 0)
(0.14231313 0 0.98982169)
(0 -1 0)
(0.14231313 0 0.98982169)
(0 1 0)
(0.18256842 0 0.98319315)
(0 -1 0)
(0.18256842 0 0.98319315)
(0 1 0)
(0.22252212 0 0.97492764)
(-0 -1 0)
(0.22252212 0 0.97492764)
(0 1 0)
(0.26210191 0 0.9650402)
(0 -1 0)
(0.26210191 0 0.9650402)
(0 1 0)
(0.30124663 0 0.95354626)
(0 -1 0)
(0.30124663 0 0.95354626)
(0 1 0)
(0.3398906 0 0.94046498)
(-0 -1 0)
(0.3398906 0 0.94046498)
(0 1 0)
(0.37796784 0 0.92581872)
(0 -1 0)
(0.37796784 0 0.92581872)
(0 1 0)
(0.41541035 0 0.90963412)
(0 -1 0)
(0.41541035 0 0.90963412)
(0 1 0)
(0.45217637 0 0.89192855)
(-0 -1 0)
(0.45217637 0 0.89192855)
(0 1 0)
(0.48817448 0 0.87274606)
(0 -1 0)
(0.48817448 0 0.87274606)
(0 1 0)
(0.52336882 0 0.85210626)
(0 -1 0)
(0.52336882 0 0.85210626)
(0 1 0)
(0.55768675 0 0.8300515)
(-0 -1 0)
(0.55768675 0 0.8300515)
(0 1 0)
(0.59108563 0 0.80660881)
(0 -1 0)
(0.59108563 0 0.80660881)
(0 1 0)
(0.62348775 0 0.78183312)
(0 -1 0)
(0.62348775 0 0.78183312)
(0 1 0)
(0.65486018 0 0.75575005)
(-0 -1 0)
(0.65486018 0 0.75575005)
(0 1 0)
(0.6851409 0 0.72841056)
(0 -1 0)
(0.6851409 0 0.72841056)
(0 1 0)
(0.71428316 0 0.69985682)
(0 -1 0)
(0.71428316 0 0.69985682)
(0 1 0)
(0.74223422 0 0.67014055)
(-0 -1 0)
(0.74223422 0 0.67014055)
(0 1 0)
(0.76895034 0 0.63930851)
(0 -1 0)
(0.76895034 0 0.63930851)
(0 1 0)
(0.7943843 0 0.60741549)
(0 -1 0)
(0.7943843 0 0.60741549)
(0 1 0)
(0.8185023 0 0.57450324)
(-0 -1 0)
(0.8185023 0 0.57450324)
(0 1 0)
(0.84125475 0 0.54063892)
(0 -1 0)
(0.84125475 0 0.54063892)
(0 1 0)
(0.86260645 0 0.50587559)
(0 -1 0)
(0.86260645 0 0.50587559)
(0 1 0)
(0.88252034 0 0.47027422)
(-0 -1 0)
(0.88252034 0 0.47027422)
(0 1 0)
(0.9009695 0 0.43388244)
(0 -1 0)
(0.9009695 0 0.43388244)
(0 1 0)
(0.91791524 0 0.39677652)
(0 -1 0)
(0.91791524 0 0.39677652)
(0 1 0)
(0.9333376 0 0.35899988)
(-0 -1 0)
(0.9333376 0 0.35899988)
(0 1 0)
(0.94720383 0 0.32063203)
(0 -1 0)
(0.94720383 0 0.32063203)
(0 1 0)
(0.95949201 0 0.28173583)
(0 -1 0)
(0.95949201 0 0.28173583)
(0 1 0)
(0.97018542 0 0.24236387)
(-0 -1 0)
(0.97018542 0 0.24236387)
(0 1 0)
(0.97926529 0 0.20258207)
(0 -1 0)
(0.97926529 0 0.20258207)
(0 1 0)
(0.98671193 0 0.16247944)
(0 -1 0)
(0.98671193 0 0.16247944)
(0 1 0)
(0.99251853 0 0.1220941)
(-0 -1 0)
(0.99251853 0 0.1220941)
(0 1 0)
(0.99667287 0 0.081505719)
(0 -1 0)
(0.99667287 0 0.081505719)
(0 1 0)
(0.99916758 0 0.040793945)
(0 -1 0)
(0.99916758 0 0.040793945)
(0 1 0)
(1 0 0)
(0 -1 0)
(1 0 0)
(-0 1 0)
(0.99916758 0 -0.040793945)
(0 -1 0)
(0.99916758 0 -0.040793945)
(0 1 0)
(0.99667287 0 -0.081505719)
(0 -1 0)
(0.99667287 0 -0.081505719)
(0 1 0)
(0.99251853 0 -0.1220941)
(0 -1 0)
(0.99251853 0 -0.1220941)
(0 1 0)
(0.98671193 0 -0.16247944)
(0 -1 0)
(0.98671193 0 -0.16247944)
(0 1 0)
(0.97926529 0 -0.20258207)
(0 -1 0)
(0.97926529 0 -0.20258207)
(0 1 0)
(0.97018542 0 -0.24236387)
(0 -1 0)
(0.97018542 0 -0.24236387)
(0 1 0)
(0.95949201 0 -0.28173583)
(0 -1 0)
(0.95949201 0 -0.28173583)
(0 1 0)
(0.94720383 0 -0.32063203)
(0 -1 0)
(0.94720383 0 -0.32063203)
(0 1 0)
(0.9333376 0 -0.35899988)
(0 -1 0)
(0.9333376 0 -0.35899988)
(0 1 0)
(0.91791524 0 -0.39677652)
(0 -1 0)
(0.91791524 0 -0.39677652)
(0 1 0)
(0.9009695 0 -0.43388244)
(0 -1 0)
(0.9009695 0 -0.43388244)
(0 1 0)
(0.88252034 0 -0.47027422)
(0 -1 0)
(0.88252034 0 -0.47027422)
(0 1 0)
(0.86260645 0 -0.50587559)
(0 -1 0)
(0.86260645 0 -0.50587559)
(0 1 0)
(0.84125475 0 -0.54063892)
(0 -1 0)
(0.84125475 0 -0.54063892)
(0 1 0)
(0.8185023 0 -0.57450324)
(0 -1 0)
(0.8185023 0 -0.57450324)
(0 1 0)
(0.7943843 0 -0.60741549)
(0 -1 0)
(0.7943843 0 -0.60741549)
(0 1 0)
(0.76895034 0 -0.63930851)
(0 -1 0)
(0.76895034 0 -0.63930851)
(0 1 0)
(0.74223422 0 -0.67014055)
(0 -1 0)
(0.74223422 0 -0.67014055)
(0 1 0)
(0.71428316 0 -0.69985682)
(0 -1 0)
(0.71428316 0 -0.69985682)
(0 1 0)
(0.6851409 0 -0.72841056)
(0 -1 0)
(0.6851409 0 -0.72841056)
(0 1 0)
(0.65486018 0 -0.75575005)
(0 -1 0)
(0.65486018 0 -0.75575005)
(0 1 0)
(0.62348775 0 -0.78183312)
(0 -1 0)
(0.62348775 0 -0.78183312)
(0 1 0)
(0.59108563 0 -0.80660881)
(0 -1 0)
(0.59108563 0 -0.80660881)
(0 1 0)
(0.55768675 0 -0.8300515)
(0 -1 0)
(0.55768675 0 -0.8300515)
(0 1 0)
(0.52336882 0 -0.85210626)
(0 -1 0)
(0.52336882 0 -0.85210626)
(0 1 0)
(0.48817448 0 -0.87274606)
(0 -1 0)
(0.48817448 0 -0.87274606)
(0 1 0)
(0.45217637 0 -0.89192855)
(0 -1 0)
(0.45217637 0 -0.89192855)
(0 1 0)
(0.41541035 0 -0.90963412)
(0 -1 0)
(0.41541035 0 -0.90963412)
(0 1 0)
(0.37796784 0 -0.92581872)
(0 -1 0)
(0.37796784 0 -0.92581872)
(0 1 0)
(0.3398906 0 -0.94046498)
(0 -1 0)
(0.3398906 0 -0.94046498)
(0 1 0)
(0.30124663 0 -0.95354626)
(0 -1 0)
(0.30124663 0 -0.95354626)
(0 1 0)
(0.26210191 0 -0.9650402)
(0 -1 0)
(0.26210191 0 -0.9650402)
(0 1 0)
(0.22252212 0 -0.97492764)
(0 -1 0)
(0.22252212 0 -0.97492764)
(0 1 0)
(0.18256842 0 -0.98319315)
(0 -1 0)
(0.18256842 0 -0.98319315)
(0 1 0)
(0.14231313 0 -0.98982169)
(0 -1 0)
(0.14231313 0 -0.98982169)
(0 1 0)
(0.10182047 0 -0.99480279)
(0 -1 0)
(0.10182047 0 -0.99480279)
(0 1 0)
(0.061163506 0 -0.99812776)
(0 -1 0)
(0.061163506 0 -0.99812776)
(0 1 0)
(0.020399258 0 -0.99979191)
(0 -1 0)
(-1 -0 -0)
(0 0 1)
(0 1 0)
(-1 0 0)
(0 0 -1)
(0 -1 0)
(0 0 1)
(1 0 0)
(0 1 0)
(1 0 -0)
(0 0 -1)
(0 -1 0)
(0 0 -1)
(-1 0 0)
(0 1 0)
(0 0 -1)
(1 0 -0)
(0 -1 0)
(-1 -0 -0)
(0 0 1)
(-0 1 0)
(0 0 1)
(1 0 0)
(-0 -1 -0)
(1 0 -0)
(0 0 -1)
(0 1 -0)
(1 0 0)
(0 0 1)
(0 -1 -0)
(0 0 -1)
(-1 0 0)
(0 1 0)
(-1 -0 -0)
(0 0 1)
(0 -1 0)
(0 0 1)
(1 0 0)
(0 1 0)
(0 0 1)
(-1 -0 -0)
(0 -1 0)
(1 0 -0)
(0 0 -1)
(0 1 -0)
(0 0 -1)
(-1 0 0)
(0 -1 0)
)

// normal volume types

664
(
0
0
0
0
0
0
0
0
0
0
0
0
0
0
0
0
0
0
0
0
0
0
0
0
0
0
0
0
0
0
0
0
0
0
0
0
0
0
0
0
0
0
0
0
0
0
0
0
0
0
0
0
0
0
0
0
0
0
0
0
0
0
0
0
0
0
0
0
0
0
0
0
0
0
0
0
0
0
0
0
0
0
0
0
0
0
0
0
0
0
0
0
0
0
0
0
0
0
0
0
0
0
0
0
0
0
0
0
0
0
0
0
0
0
0
0
0
0
0
0
0
0
0
0
0
0
0
0
0
0
0
0
0
0
0
0
0
0
0
0
0
0
0
0
0
0
0
0
0
0
0
0
0
0
0
0
0
0
0
0
0
0
0
0
0
0
0
0
0
0
0
0
0
0
0
0
0
0
0
0
0
0
0
0
0
0
0
0
0
0
0
0
0
0
0
0
0
0
0
0
0
0
0
0
0
0
0
0
0
0
0
0
0
0
0
0
0
0
0
0
0
0
0
0
0
0
0
0
0
0
0
0
0
0
0
0
0
0
0
0
0
0
0
0
0
0
0
0
0
0
0
0
0
0
0
0
0
0
0
0
0
0
0
0
0
0
0
0
0
0
0
0
0
0
0
0
0
0
0
0
0
0
0
0
0
0
0
0
0
0
0
0
0
0
0
0
0
0
0
0
0
0
0
0
0
0
0
0
0
0
0
0
0
0
0
0
0
0
0
0
0
0
0
0
0
0
0
0
0
0
0
0
0
0
0
0
0
0
0
0
0
0
0
0
0
0
0
0
0
0
0
0
0
0
0
0
0
0
0
0
0
0
0
0
0
0
0
0
0
0
0
0
0
0
0
0
0
0
0
0
0
0
0
0
0
0
0
0
0
0
0
0
0
0
0
0
0
0
0
0
0
0
0
0
0
0
0
0
0
0
0
0
0
0
0
0
0
0
0
0
0
0
0
0
0
0
0
0
0
0
0
0
0
0
0
0
0
0
0
0
0
0
0
0
0
0
0
0
0
0
0
0
0
0
0
0
0
0
0
0
0
0
0
0
0
0
0
0
0
0
0
0
0
0
0
0
0
0
0
0
0
0
0
0
0
0
0
0
0
0
0
0
0
0
0
0
0
0
0
0
0
0
0
0
0
0
0
0
0
0
0
0
0
0
0
0
0
0
0
0
0
0
0
0
0
0
0
0
0
0
0
0
0
0
0
0
0
0
0
0
0
0
0
0
0
0
0
0
0
0
0
0
0
0
0
0
0
0
0
0
0
0
0
0
0
0
0