/*--------------------------------*- C++ -*----------------------------------*\
| =========                 |                                                 |
| \\      /  F ield         | OpenFOAM: The Open Source CFD Toolbox           |
|  \\    /   O peration     | Version:  4.0                                   |
|   \\  /    A nd           | Web:      www.OpenFOAM.org                      |
|    \\/     M anipulation  |                                                 |
\*---------------------------------------------------------------------------*/
FoamFile
{
    version     2.0;
    format      ascii;
    class       dictionary;
    location    "constant";
    object      fvOptions;
}
// * * * * * * * * * * * * * * * * * * * * * * * * * * * * * * * * * * * * * //

porosity1
{
    type            explicitPorositySource;
    active          yes;

    explicitPorositySourceCoeffs
    {
        selectionMode   cellZone;
        cellZone        porousCells;

        type            DarcyForchheimer;

        // D 100;  // Very little blockage
        // D 200;  // Some blockage but steady flow
         D 500e6;  // Slight waviness in the far wake
      //  D 8.85e10; // Fully shedding behavior  D=1/permeablity


        DarcyForchheimerCoeffs
        {
            d   ($D $D $D);
            f   (0 0 0);

            coordinateSystem
            {
                type    cartesian;
                origin  (0 0 0);
                coordinateRotation
                {
                    type    axesRotation;
                    e1  (1 0 0);
                    e2  (0 1 0);
                }
            }
        }
    }
}


// ************************************************************************* //
