/*--------------------------------*- C++ -*----------------------------------*\
| =========                 |                                                 |
| \\      /  F ield         | OpenFOAM: The Open Source CFD Toolbox           |
|  \\    /   O peration     | Version:  v2006                                 |
|   \\  /    A nd           | Website:  www.openfoam.com                      |
|    \\/     M anipulation  |                                                 |
\*---------------------------------------------------------------------------*/
FoamFile
{
    version     2.0;
    format      ascii;
    class       extendedFeatureEdgeMesh;
    location    "constant/extendedFeatureEdgeMesh";
    object      body.extendedFeatureEdgeMesh;
}
// * * * * * * * * * * * * * * * * * * * * * * * * * * * * * * * * * * * * * //

// points

382
(
(0.507643 -0.3145072 -0.1209772)
(0.507643 -0.3121002 -0.1197031)
(0.507643 -0.3241119 -0.1254146)
(0.507643 -0.2956161 -0.1089659)
(0.507643 -0.3346728 -0.1291848)
(0.507643 -0.345542 -0.131939)
(0.507643 -0.2863212 -0.1010179)
(0.507643 -0.2769982 -0.09107807)
(0.507643 -0.3558897 -0.1335465)
(0.507643 -0.3016036 -0.139014)
(0.507643 -0.2901895 -0.1321881)
(0.507643 -0.2705491 -0.08254546)
(0.507643 -0.2649895 -0.0734914)
(0.507643 -0.3096348 -0.143063)
(0.507643 -0.2805189 -0.1250572)
(0.507643 -0.2709273 -0.1167022)
(0.507643 -0.2603686 -0.06396984)
(0.507643 -0.3662293 -0.134182)
(0.507643 -0.3488275 -0.1548069)
(0.507643 -0.3354128 -0.1521831)
(0.507643 -0.3223166 -0.1482503)
(0.507643 -0.3624645 -0.1560671)
(0.507643 -0.2567358 -0.05403471)
(0.507643 -0.3765074 -0.1338481)
(0.507643 -0.2528003 -0.03483375)
(0.507643 -0.2621474 -0.1075314)
(0.507643 -0.3866706 -0.1325476)
(0.507643 -0.3754841 -0.1559554)
(0.507643 -0.3131494 0.06997589)
(0.507643 -0.3306332 0.07821984)
(0.507643 -0.3084136 0.06723057)
(0.507643 -0.2527485 -0.01486387)
(0.507643 -0.2542578 -0.09758979)
(0.507643 -0.2473373 -0.08692196)
(0.507643 -0.2417007 -0.07608597)
(0.507643 -0.3413682 0.08167624)
(0.507643 -0.2563742 0.003497801)
(0.507643 -0.2637175 0.02146895)
(0.507643 -0.3970155 -0.1301845)
(0.507643 -0.3882669 -0.1545728)
(0.507643 -0.3539708 0.0842787)
(0.507643 -0.3648578 0.08537076)
(0.507643 -0.2981871 0.06045849)
(0.507643 -0.2372188 -0.06501745)
(0.507643 -0.2338684 -0.05379787)
(0.507643 -0.2316267 -0.04250873)
(0.507643 -0.2741788 0.03756163)
(0.507643 -0.3754108 0.08536065)
(0.507643 -0.3855762 0.08433904)
(0.507643 -0.3953002 0.08239661)
(0.507643 -0.2304446 -0.03075068)
(0.507643 -0.2808794 0.04532234)
(0.507643 -0.4069138 -0.1268673)
(0.507643 -0.4007403 -0.1519556)
(0.507643 -0.2886221 0.05279877)
(0.507643 -0.3024541 0.08917738)
(0.507643 -0.3161067 0.09599423)
(0.507643 -0.4050641 0.07943517)
(0.507643 -0.4144232 0.0755583)
(0.507643 -0.2965033 0.08571243)
(0.507643 -0.230415 -0.01902903)
(0.507643 -0.2315218 -0.007412881)
(0.507643 -0.3295 0.1010123)
(0.507643 -0.4233246 0.07081185)
(0.507643 -0.4317153 0.06524167)
(0.507643 -0.2821819 0.07594942)
(0.507643 -0.2337492 0.004028658)
(0.507643 -0.237166 0.01546604)
(0.507643 -0.4128317 -0.1481401)
(0.507643 -0.3414111 0.1042669)
(0.507643 -0.3534011 0.1063964)
(0.507643 -0.3654222 0.1073975)
(0.507643 -0.4398521 0.0586164)
(0.507643 -0.4472376 0.05129074)
(0.507643 -0.2706407 0.0661696)
(0.507643 -0.4163197 -0.1226589)
(0.507643 -0.3774267 0.1072671)
(0.507643 -0.3897355 0.1059427)
(0.507643 -0.4017004 0.1034537)
(0.507643 -0.4132592 0.09985078)
(0.507643 -0.4538445 0.04333998)
(0.507643 -0.2417597 0.02666185)
(0.507643 -0.2475414 0.03754077)
(0.507643 -0.2545225 0.04802749)
(0.507643 -0.4251871 -0.1176221)
(0.507643 -0.4244092 -0.1431912)
(0.507643 -0.2615356 0.05673996)
(0.507643 -0.4596457 0.03483941)
(0.507643 -0.4648558 0.02537217)
(0.507643 -0.4243494 0.09518453)
(0.507643 -0.4352577 0.08929493)
(0.507643 -0.4354229 -0.1371526)
(0.507643 -0.4691139 0.01546214)
(0.507643 -0.4553673 0.07423693)
(0.507643 -0.464389 0.06511869)
(0.507643 -0.4338214 -0.111547)
(0.507643 -0.4723976 0.005185896)
(0.507643 -0.4456269 0.08230404)
(0.507643 -0.4725082 0.05510158)
(-0.08986801 -0.004872502 0.283736)
(-0.0867195 -0.02407755 0.283736)
(-0.07951608 -0.04215676 0.283736)
(-0.06859458 -0.05826477 0.283736)
(-0.05446568 -0.07164837 0.283736)
(-0.03779002 -0.08168179 0.283736)
(-0.01934734 -0.08789585 0.283736)
(-0.08881439 0.01456038 0.283736)
(6.938894e-18 -0.09 0.283736)
(-0.0836079 0.03331243 0.283736)
(-0.07449201 0.05050684 0.283736)
(0.507643 -0.4457994 -0.1300753)
(0.507643 -0.4746843 -0.00537998)
(0.507643 -0.47962 0.04431229)
(0.507643 -0.4856687 0.03283198)
(-0.06189295 0.0653396 0.283736)
(0.01934734 -0.08789585 0.283736)
(0.03779002 -0.08168179 0.283736)
(0.507643 -0.4418476 -0.1046333)
(0.507643 -0.4554655 -0.1220099)
(0.507643 -0.47596 -0.01628787)
(-0.04639985 0.07711715 0.283736)
(0.05446568 -0.07164837 0.283736)
(0.507643 -0.4492034 -0.09692266)
(0.507643 -0.4905985 0.02074187)
(0.507643 -0.4761705 -0.02724629)
(-0.02873714 0.08528879 0.283736)
(-0.009730712 0.08947241 0.283736)
(0.507643 -0.4644761 -0.112864)
(0.507643 -0.4943444 0.008160613)
(0.507643 -0.4968415 -0.004700547)
(0.507643 -0.4753173 -0.0381729)
(-0.1098892 0.004935131 0.283736)
(-0.1090045 -0.01476566 0.283736)
(-0.1046162 -0.03399187 0.283736)
(-0.0968655 -0.05212555 0.283736)
(-0.08600146 -0.06858388 0.283736)
(-0.05641892 -0.09442937 0.283736)
(-0.03865123 -0.1029858 0.283736)
(-0.01964126 -0.1082323 0.283736)
(6.938894e-18 -0.11 0.283736)
(-0.1072421 0.0244773 0.283736)
(-0.1011481 0.04323275 0.283736)
(-0.09180306 0.06059867 0.283736)
(0.06859458 -0.05826477 0.283736)
(0.507643 -0.4558268 -0.08845659)
(0.009730712 0.08947241 0.283736)
(0.01964126 -0.1082323 0.283736)
(0.03865123 -0.1029858 0.283736)
(0.05641892 -0.09442937 0.283736)
(-0.07237326 -0.08283786 0.283736)
(0.507643 -0.4725075 -0.102937)
(0.507643 -0.4980777 -0.01774435)
(-0.07950743 0.07601689 0.283736)
(-0.06465638 0.08899187 0.283736)
(-0.04772721 0.09910657 0.283736)
(0.07951608 -0.04215676 0.283736)
(0.507643 -0.4616562 -0.07927395)
(0.507643 -0.4980409 -0.03087356)
(0.507643 -0.4967419 -0.04383751)
(0.507643 -0.4734019 -0.04898535)
(0.02873714 0.08528879 0.283736)
(-0.009860324 0.1095572 0.283736)
(-0.02926405 0.1060359 0.283736)
(0.009860324 0.1095572 0.283736)
(0.07237326 -0.08283786 0.283736)
(0.507643 -0.4795212 -0.092313)
(0.507643 -0.4942023 -0.05658786)
(0.507643 -0.4704713 -0.05946462)
(0.08600146 -0.06858388 0.283736)
(0.0867195 -0.02407755 0.283736)
(0.02926405 0.1060359 0.283736)
(0.04639985 0.07711715 0.283736)
(0.0968655 -0.05212555 0.283736)
(0.507643 -0.4665469 -0.06958539)
(0.507643 -0.4854787 -0.08107629)
(0.507643 -0.4904414 -0.06903174)
(0.08986801 -0.004872502 0.283736)
(0.08881439 0.01456038 0.283736)
(0.0836079 0.03331243 0.283736)
(0.1046162 -0.03399187 0.283736)
(0.06189295 0.0653396 0.283736)
(0.04772721 0.09910657 0.283736)
(0.07449201 0.05050684 0.283736)
(0.1090045 -0.01476566 0.283736)
(0.06465638 0.08899187 0.283736)
(0.1098892 0.004935131 0.283736)
(0.1072421 0.0244773 0.283736)
(0.1011481 0.04323275 0.283736)
(0.09180306 0.06059867 0.283736)
(0.07950743 0.07601689 0.283736)
(0.09753416 -0.2969694 -0.190476)
(0.1161728 -0.2901855 -0.190476)
(0.1343436 -0.2822332 -0.190476)
(0.1519734 -0.2731443 -0.190476)
(0.1689913 -0.2629557 -0.190476)
(0.07850283 -0.3025575 -0.190476)
(0.1853288 -0.2517081 -0.190476)
(0.20092 -0.2394471 -0.190476)
(0.2157021 -0.2262219 -0.190476)
(0.2296157 -0.2120858 -0.190476)
(0.0591554 -0.3069274 -0.190476)
(0.2426048 -0.1970956 -0.190476)
(0.03956976 -0.3100613 -0.190476)
(0.2546169 -0.1813119 -0.190476)
(0.0198248 -0.3119467 -0.190476)
(-9.020562e-17 -0.312576 -0.190476)
(0.2656038 -0.164798 -0.190476)
(0.2755212 -0.1476206 -0.190476)
(-0.0198248 -0.3119467 -0.190476)
(-0.03956976 -0.3100613 -0.190476)
(0.2843291 -0.1298488 -0.190476)
(0.2919922 -0.1115541 -0.190476)
(-0.0591554 -0.3069274 -0.190476)
(-0.07850283 -0.3025575 -0.190476)
(0.2984795 -0.09281018 -0.190476)
(-0.09753416 -0.2969694 -0.190476)
(0.303765 -0.07369258 -0.190476)
(0.3078273 -0.05427825 -0.190476)
(-0.1161728 -0.2901855 -0.190476)
(-0.1343436 -0.2822332 -0.190476)
(0.3106501 -0.03464536 -0.190476)
(0.3122219 -0.01487296 -0.190476)
(-0.1519734 -0.2731443 -0.190476)
(-0.1689913 -0.2629557 -0.190476)
(0.3125367 0.00495932 -0.190476)
(-0.1853288 -0.2517081 -0.190476)
(0.3115929 0.02477163 -0.190476)
(0.3093944 0.0444842 -0.190476)
(-0.20092 -0.2394471 -0.190476)
(-0.2157021 -0.2262219 -0.190476)
(0.3059502 0.06401765 -0.190476)
(0.3012739 0.08329332 -0.190476)
(-0.2296157 -0.2120858 -0.190476)
(-0.2426048 -0.1970956 -0.190476)
(0.2953846 0.1022336 -0.190476)
(-0.2546169 -0.1813119 -0.190476)
(0.2883058 0.1207622 -0.190476)
(-0.2656038 -0.164798 -0.190476)
(0.2800662 0.1388046 -0.190476)
(-0.2755212 -0.1476206 -0.190476)
(-0.2843291 -0.1298488 -0.190476)
(0.2706988 0.156288 -0.190476)
(-0.2919922 -0.1115541 -0.190476)
(-0.2984795 -0.09281018 -0.190476)
(0.2602414 0.1731421 -0.190476)
(-0.303765 -0.07369258 -0.190476)
(-0.3078273 -0.05427825 -0.190476)
(-0.3106501 -0.03464536 -0.190476)
(-0.3122219 -0.01487296 -0.190476)
(0.2487361 0.189299 -0.190476)
(-0.3125367 0.00495932 -0.190476)
(-0.3115929 0.02477163 -0.190476)
(0.2362292 0.2046937 -0.190476)
(-0.3093944 0.0444842 -0.190476)
(-0.3059502 0.06401765 -0.190476)
(-0.3012739 0.08329332 -0.190476)
(-0.2953846 0.1022336 -0.190476)
(-0.2883058 0.1207622 -0.190476)
(0.2227711 0.2192642 -0.190476)
(-0.2800662 0.1388046 -0.190476)
(0.208416 0.2329518 -0.190476)
(-0.2706988 0.156288 -0.190476)
(-0.2602414 0.1731421 -0.190476)
(0.1932217 0.2457013 -0.190476)
(-0.2487361 0.189299 -0.190476)
(0.1772493 0.2574615 -0.190476)
(-0.2362292 0.2046937 -0.190476)
(-0.2227711 0.2192642 -0.190476)
(-0.208416 0.2329518 -0.190476)
(0.1605632 0.268185 -0.190476)
(-0.1932217 0.2457013 -0.190476)
(0.1432306 0.2778286 -0.190476)
(-0.1772493 0.2574615 -0.190476)
(0.1253213 0.2863535 -0.190476)
(0.1069073 0.2937254 -0.190476)
(-0.1605632 0.268185 -0.190476)
(0.08806284 0.2999145 -0.190476)
(-0.1432306 0.2778286 -0.190476)
(-0.1253213 0.2863535 -0.190476)
(0.06886379 0.3048959 -0.190476)
(0.04938744 0.3086497 -0.190476)
(0.02971224 0.3111606 -0.190476)
(0.009917391 0.3124186 -0.190476)
(-0.009917391 0.3124186 -0.190476)
(-0.1069073 0.2937254 -0.190476)
(-0.02971224 0.3111606 -0.190476)
(-0.04938744 0.3086497 -0.190476)
(-0.06886379 0.3048959 -0.190476)
(-0.08806284 0.2999145 -0.190476)
(-0.07823204 -0.2824043 -0.17094)
(-0.0971186 -0.2764786 -0.17094)
(-0.115562 -0.2692914 -0.17094)
(-0.05898852 -0.2870415 -0.17094)
(-0.1334782 -0.2608755 -0.17094)
(-0.03947585 -0.2903689 -0.17094)
(-0.1507853 -0.2512693 -0.17094)
(-0.01978306 -0.2923715 -0.17094)
(-0.1674044 -0.2405165 -0.17094)
(-1.804112e-16 -0.29304 -0.17094)
(-0.1832597 -0.2286664 -0.17094)
(0.01978306 -0.2923715 -0.17094)
(-0.1982789 -0.2157729 -0.17094)
(0.03947585 -0.2903689 -0.17094)
(-0.2123933 -0.2018949 -0.17094)
(0.05898852 -0.2870415 -0.17094)
(-0.2255386 -0.1870956 -0.17094)
(0.07823204 -0.2824043 -0.17094)
(-0.2376548 -0.1714428 -0.17094)
(0.0971186 -0.2764786 -0.17094)
(-0.2486867 -0.1550076 -0.17094)
(0.115562 -0.2692914 -0.17094)
(-0.2585839 -0.1378652 -0.17094)
(0.1334782 -0.2608755 -0.17094)
(-0.2673012 -0.1200937 -0.17094)
(0.1507853 -0.2512693 -0.17094)
(-0.2747989 -0.1017743 -0.17094)
(0.1674044 -0.2405165 -0.17094)
(-0.2810427 -0.08299054 -0.17094)
(0.1832597 -0.2286664 -0.17094)
(-0.2860042 -0.06382809 -0.17094)
(0.1982789 -0.2157729 -0.17094)
(-0.2896608 -0.0443744 -0.17094)
(0.2123933 -0.2018949 -0.17094)
(-0.2919956 -0.02471824 -0.17094)
(0.2255386 -0.1870956 -0.17094)
(-0.2929982 -0.004949293 -0.17094)
(0.2376548 -0.1714428 -0.17094)
(-0.2926639 0.01484223 -0.17094)
(0.2486867 -0.1550076 -0.17094)
(-0.2909942 0.03456604 -0.17094)
(0.2585839 -0.1378652 -0.17094)
(0.2673012 -0.1200937 -0.17094)
(0.2747989 -0.1017743 -0.17094)
(-0.2879968 0.05413212 -0.17094)
(0.2810427 -0.08299054 -0.17094)
(-0.2836853 0.07345122 -0.17094)
(0.2860042 -0.06382809 -0.17094)
(0.2896608 -0.0443744 -0.17094)
(0.2919956 -0.02471824 -0.17094)
(0.2929982 -0.004949293 -0.17094)
(0.2926639 0.01484223 -0.17094)
(0.2909942 0.03456604 -0.17094)
(0.2879968 0.05413212 -0.17094)
(-0.2780795 0.09243517 -0.17094)
(0.2836853 0.07345122 -0.17094)
(0.2780795 0.09243517 -0.17094)
(-0.2712048 0.1109974 -0.17094)
(0.2712048 0.1109974 -0.17094)
(0.2630926 0.1290531 -0.17094)
(-0.2630926 0.1290531 -0.17094)
(-0.2537801 0.14652 -0.17094)
(0.2537801 0.14652 -0.17094)
(-0.2433096 0.1633184 -0.17094)
(0.2433096 0.1633184 -0.17094)
(0.2317289 0.1793715 -0.17094)
(-0.2317289 0.1793715 -0.17094)
(0.2190909 0.1946063 -0.17094)
(-0.2190909 0.1946063 -0.17094)
(0.2054533 0.2089531 -0.17094)
(-0.2054533 0.2089531 -0.17094)
(0.1908782 0.2223465 -0.17094)
(-0.1908782 0.2223465 -0.17094)
(0.1754322 0.2347254 -0.17094)
(-0.1754322 0.2347254 -0.17094)
(0.1591857 0.2460332 -0.17094)
(-0.1591857 0.2460332 -0.17094)
(0.1422129 0.2562185 -0.17094)
(0.1245912 0.2652348 -0.17094)
(-0.1245912 0.2652348 -0.17094)
(-0.1422129 0.2562185 -0.17094)
(0.106401 0.2730408 -0.17094)
(-0.106401 0.2730408 -0.17094)
(0.08772537 0.279601 -0.17094)
(-0.08772537 0.279601 -0.17094)
(0.06864944 0.2848854 -0.17094)
(-0.06864944 0.2848854 -0.17094)
(0.009897174 0.2928728 -0.17094)
(-0.009897174 0.2928728 -0.17094)
(-0.02964636 0.2915365 -0.17094)
(-0.04926028 0.28887 -0.17094)
(0.02964636 0.2915365 -0.17094)
(0.04926028 0.28887 -0.17094)
)

// edges

382
(
(0 1)
(2 0)
(1 3)
(4 2)
(5 4)
(3 6)
(6 7)
(8 5)
(9 10)
(7 11)
(11 12)
(13 9)
(10 14)
(14 15)
(12 16)
(17 8)
(18 19)
(19 20)
(21 18)
(20 13)
(16 22)
(23 17)
(22 24)
(15 25)
(26 23)
(27 21)
(28 29)
(30 28)
(24 31)
(25 32)
(32 33)
(33 34)
(29 35)
(31 36)
(36 37)
(38 26)
(39 27)
(35 40)
(40 41)
(42 30)
(43 44)
(44 45)
(37 46)
(34 43)
(41 47)
(47 48)
(48 49)
(45 50)
(46 51)
(52 38)
(53 39)
(51 54)
(55 56)
(49 57)
(57 58)
(54 42)
(59 55)
(50 60)
(60 61)
(56 62)
(58 63)
(63 64)
(65 59)
(61 66)
(66 67)
(68 53)
(62 69)
(69 70)
(70 71)
(64 72)
(72 73)
(74 65)
(75 52)
(71 76)
(77 78)
(76 77)
(78 79)
(73 80)
(67 81)
(81 82)
(82 83)
(75 84)
(85 68)
(86 74)
(80 87)
(83 86)
(87 88)
(79 89)
(89 90)
(91 85)
(88 92)
(93 94)
(84 95)
(92 96)
(90 97)
(97 93)
(94 98)
(99 100)
(100 101)
(101 102)
(102 103)
(103 104)
(104 105)
(106 99)
(105 107)
(108 106)
(109 108)
(110 91)
(96 111)
(98 112)
(112 113)
(114 109)
(107 115)
(115 116)
(95 117)
(118 110)
(111 119)
(120 114)
(116 121)
(122 117)
(113 123)
(119 124)
(125 120)
(126 125)
(127 118)
(128 129)
(123 128)
(124 130)
(131 132)
(132 133)
(134 135)
(136 137)
(138 139)
(137 138)
(140 131)
(141 140)
(142 141)
(121 143)
(122 144)
(145 126)
(139 146)
(146 147)
(147 148)
(133 134)
(135 149)
(149 136)
(150 127)
(129 151)
(152 142)
(153 152)
(154 153)
(143 155)
(144 156)
(151 157)
(157 158)
(130 159)
(160 145)
(161 162)
(163 161)
(162 154)
(148 164)
(165 150)
(158 166)
(159 167)
(164 168)
(155 169)
(170 163)
(171 160)
(168 172)
(156 173)
(174 165)
(166 175)
(173 167)
(169 176)
(176 177)
(177 178)
(172 179)
(180 171)
(175 174)
(181 170)
(178 182)
(179 183)
(182 180)
(184 181)
(183 185)
(185 186)
(186 187)
(187 188)
(189 184)
(188 189)
(190 191)
(191 192)
(192 193)
(193 194)
(195 190)
(194 196)
(196 197)
(197 198)
(198 199)
(200 195)
(199 201)
(202 200)
(201 203)
(204 202)
(205 204)
(203 206)
(206 207)
(208 205)
(209 208)
(207 210)
(210 211)
(212 209)
(213 212)
(214 211)
(215 213)
(214 216)
(216 217)
(218 215)
(219 218)
(220 217)
(220 221)
(222 219)
(223 222)
(224 221)
(225 223)
(224 226)
(226 227)
(228 225)
(229 228)
(230 227)
(230 231)
(232 229)
(233 232)
(234 231)
(233 235)
(234 236)
(235 237)
(238 236)
(237 239)
(239 240)
(241 238)
(240 242)
(242 243)
(241 244)
(243 245)
(245 246)
(246 247)
(247 248)
(249 244)
(248 250)
(250 251)
(249 252)
(251 253)
(253 254)
(254 255)
(255 256)
(256 257)
(258 252)
(257 259)
(260 258)
(259 261)
(261 262)
(263 260)
(262 264)
(265 263)
(264 266)
(266 267)
(267 268)
(269 265)
(268 270)
(271 269)
(270 272)
(273 271)
(274 273)
(272 275)
(276 274)
(277 278)
(275 277)
(276 279)
(279 280)
(280 281)
(281 282)
(282 283)
(278 284)
(283 285)
(285 286)
(286 287)
(287 288)
(284 288)
(289 290)
(290 291)
(292 289)
(291 293)
(294 292)
(293 295)
(296 294)
(295 297)
(298 296)
(297 299)
(300 298)
(299 301)
(302 300)
(301 303)
(304 302)
(305 303)
(306 304)
(305 307)
(308 306)
(307 309)
(310 308)
(309 311)
(312 310)
(311 313)
(312 314)
(313 315)
(316 314)
(315 317)
(318 316)
(317 319)
(320 318)
(321 319)
(322 320)
(321 323)
(322 324)
(325 323)
(324 326)
(327 325)
(326 328)
(327 329)
(328 330)
(330 331)
(331 332)
(333 329)
(332 334)
(333 335)
(334 336)
(336 337)
(337 338)
(338 339)
(339 340)
(340 341)
(341 342)
(343 335)
(342 344)
(344 345)
(343 346)
(345 347)
(347 348)
(349 346)
(349 350)
(348 351)
(350 352)
(351 353)
(353 354)
(355 352)
(354 356)
(355 357)
(356 358)
(359 357)
(358 360)
(361 359)
(360 362)
(363 361)
(362 364)
(365 363)
(364 366)
(366 367)
(368 369)
(369 365)
(367 370)
(371 368)
(370 372)
(373 371)
(372 374)
(375 373)
(376 377)
(377 378)
(378 379)
(379 375)
(380 376)
(381 380)
(374 381)
)

// concaveStart mixedStart nonFeatureStart
0 0 0
// internalStart flatStart openStart multipleStart
289 382 382 382
// normals

764
(
(0.005862221 -0.4678249 0.8838017)
(1 -0 0)
(0.006436951 -0.4193953 0.9077809)
(1 -0 0)
(-0.05335749 -0.5450176 0.836725)
(1 0 0)
(0.01082752 -0.3361985 0.9417289)
(1 0 0)
(-0.002160594 -0.2456326 0.9693606)
(1 0 -0)
(-0.01410666 -0.6498274 0.7599509)
(1 -0 0)
(-0.02938616 -0.7290593 0.6838194)
(1 0 -0)
(-0.002841904 -0.153506 0.9881436)
(1 0 -0)
(1 0 0)
(0.01082562 0.5132195 -0.8581891)
(-0.01996793 -0.7976086 0.6028447)
(1 0 0)
(-0.01841707 -0.8520206 0.5231841)
(1 0 0)
(1 0 0)
(-0.0007882096 0.4501799 -0.8929375)
(1 0 0)
(0.007148264 0.5934613 -0.8048308)
(1 0 0)
(0.01299766 0.656774 -0.7539754)
(-0.001285304 -0.8996515 0.4366069)
(1 0 0)
(0.0102292 -0.06133998 0.9980645)
(1 0 -0)
(1 0 0)
(0.009911813 0.1919452 -0.9813556)
(1 0 0)
(0.008141901 0.2876021 -0.9577154)
(1 0 0)
(0.008008459 0.09201985 -0.995725)
(1 0 0)
(0.01660452 0.3785379 -0.9254368)
(-0.02219827 -0.938953 0.3433286)
(1 0 0)
(0.03118425 0.03245276 0.9989867)
(1 0 0)
(-0.07706066 -0.9767215 0.2001917)
(1 0 0)
(1 0 0)
(0.02065944 0.7221751 -0.6914017)
(0.009816139 0.1269249 0.9918638)
(1 0 -0)
(1 -0 0)
(-0.002103797 -0.008584716 -0.9999609)
(-0.03386686 -0.4262423 -0.9039749)
(1 -0 0)
(0.005051246 -0.5015162 -0.8651335)
(1 -0 0)
(-0.08352975 -0.9965019 0.002589117)
(1 0 0)
(1 0 0)
(0.01303651 0.7832452 -0.6215762)
(1 0 0)
(0.02244561 0.8387202 -0.5440998)
(1 0 -0)
(-0.001498053 0.887154 -0.461471)
(0.001394247 -0.306479 -0.9518764)
(1 0 0)
(-0.06597585 -0.9789186 -0.1933018)
(1 0 0)
(-0.07697512 -0.9229556 -0.3771311)
(1 0 0)
(0.007117259 0.2226896 0.9748634)
(1 0 -0)
(1 -0 0)
(8.778e-05 -0.1075354 -0.9942013)
(-0.002639066 -0.2022344 -0.9793336)
(1 0 0)
(0.02163798 -0.09978522 -0.9947737)
(1 0 0)
(-0.01743413 -0.5520411 -0.8336346)
(1 0 0)
(1 0 0)
(0.02143806 0.9579703 -0.2860654)
(1 0 0)
(0.01751674 0.9806985 -0.19474)
(-0.07177763 -0.8362559 -0.5436213)
(1 0 0)
(1 -0 0)
(0.01578578 0.9267773 -0.3752794)
(0.0140122 0.0009586714 -0.9999014)
(1 0 0)
(0.003814952 0.09999455 -0.9949807)
(1 0 0)
(0.01422303 0.1958646 -0.9805278)
(1 0 0)
(1 0 -0)
(0.01427633 0.9948832 -0.100018)
(-0.02017934 -0.7567557 -0.6533862)
(1 0 0)
(0.01281001 0.3177249 0.9480964)
(1 0 0)
(1 -0 0)
(-0.008090045 -0.2053426 -0.9786567)
(-0.01984715 -0.6944946 -0.7192241)
(1 0 0)
(1 0 0)
(0.02224859 0.4466073 0.8944534)
(0.008557622 0.2902378 -0.9569163)
(1 -0 0)
(0.01753205 0.3826427 -0.92373)
(1 0 0)
(-0.02310909 -0.6249091 -0.7803554)
(1 0 0)
(1 0 0)
(-0.005135198 0.503177 0.8641681)
(1 0 0)
(0.02203089 0.9997541 -0.002531709)
(1 0 0)
(0.01986555 0.995295 0.09483271)
(1 0 0)
(0.01730529 0.3507994 0.9362907)
(0.01548057 0.4704594 -0.8822858)
(1 0 0)
(0.01813914 0.5529807 -0.8329966)
(1 -0 0)
(1 0 0)
(0.03290393 0.5629691 0.8258227)
(1 0 0)
(0.0123617 0.981497 0.191078)
(1 0 0)
(0.02282638 0.9579093 0.2861622)
(1 -0 0)
(-0.006998879 -0.3009172 -0.9536246)
(1 0 0)
(-0.0004254739 0.2635792 0.9646377)
(1 0 0)
(0.007903565 0.1748625 0.9845611)
(1 0 0)
(0.0004936443 0.08299313 0.99655)
(0.02181773 0.6312562 -0.7752674)
(1 0 0)
(0.01945185 0.7040918 -0.7098425)
(1 0 0)
(1 0 0)
(0.02376466 0.6463045 0.7627095)
(0.01448205 0.4083636 0.9127045)
(1 0 0)
(1 -0 0)
(-0.001069224 -0.01086452 0.9999404)
(1 -0 0)
(-0.01218887 -0.2036463 0.9789687)
(1 -0 0)
(-0.0005404268 -0.1069797 0.9942611)
(1 -0 0)
(-0.00662754 -0.2975766 0.954675)
(0.03125375 0.7687315 -0.6388076)
(1 0 0)
(1 0 0)
(0.02182846 0.9249323 0.3795047)
(1 0 0)
(0.01755035 0.8829003 0.4692323)
(1 0 0)
(0.02538401 0.8321514 0.5539673)
(1 0 -0)
(0.01595368 0.4938391 0.8694069)
(1 -0 0)
(-0.01092729 -0.3930344 -0.9194589)
(1 0 -0)
(0.0199199 0.7192345 0.6944818)
(0.02297224 0.825771 -0.5635375)
(1 -0 0)
(1 0 0)
(0.01398953 0.7789105 0.626979)
(0.02704021 0.8757738 -0.4819638)
(1 0 0)
(1 -0 0)
(-0.01406721 -0.3877852 0.9216424)
(1 0 0)
(-0.01486521 -0.4750403 0.8798385)
(1 0 0)
(-0.01573877 -0.4806996 -0.8767441)
(0.02440177 0.9185008 -0.3946655)
(1 -0 0)
(1 0 0)
(-0.0159432 -0.7107674 0.7032464)
(1 0 0)
(0.02127147 0.5753064 0.8176613)
(0.02699422 0.9522039 -0.3042681)
(1 -0 0)
(1 -0 0)
(-0.01334912 -0.5589657 0.8290833)
(1 0 0)
(-0.0243535 -0.637666 0.7699279)
(1 0 0)
(-0.02504977 -0.7766185 0.629473)
(0.9861882 0.1616775 -0.03596022)
(0 0 1)
(0.9284123 0.3699132 -0.03485442)
(-0 -0 1)
(0.8273507 0.5609578 -0.02858553)
(-0 0 1)
(0.6871885 0.7254561 -0.03854095)
(-0 0 1)
(0.5154298 0.8566507 -0.02194639)
(0 0 1)
(0.3190754 0.9469824 -0.03761961)
(0 -0 1)
(0.9981812 -0.05412 -0.02655674)
(0 -0 1)
(0.1080636 0.993626 -0.03208902)
(0 -0 1)
(0.9628272 -0.2673276 -0.03872529)
(-0 0 1)
(0.8832502 -0.4682696 -0.02434406)
(0 0 1)
(1 0 0)
(-0.013435 -0.5634205 -0.826061)
(0.02721269 0.9770115 -0.2114426)
(1 -0 0)
(1 0 0)
(-0.01985864 -0.8347701 0.5502404)
(1 0 0)
(-0.02408235 -0.8844579 0.4659982)
(0.7616436 -0.6469457 -0.03688214)
(0 0 1)
(-0.1080636 0.993626 -0.03208902)
(0 0 1)
(-0.3190754 0.9469824 -0.03761961)
(-0 0 1)
(1 0 0)
(0.01751335 0.6525445 0.7575479)
(1 0 -0)
(-0.02579294 -0.6404543 -0.767563)
(0.02574872 0.9929003 -0.1161288)
(1 0 0)
(0.6048331 -0.7956446 -0.03356373)
(0 0 1)
(-0.515483 0.8567391 -0.01659722)
(0 -0 1)
(0.02967947 0.7232389 0.6899599)
(1 0 0)
(1 0 0)
(-0.02361158 -0.9257215 0.377468)
(0.02849933 0.9994095 -0.01919435)
(1 -0 0)
(0.4196947 -0.9071551 -0.03042921)
(-0 0 1)
(0.2148136 -0.9759088 -0.03817256)
(0 0 1)
(1 0 0)
(-0.01620723 -0.7122619 -0.7017266)
(1 0 0)
(-0.02727884 -0.9813026 0.1905285)
(1 0 0)
(-0.023217 -0.9581626 0.2852811)
(0.02521054 0.9966483 0.07782386)
(1 -0 0)
(0 -0 1)
(-0.9984857 -0.04484206 0.03186712)
(0 -0 1)
(-0.9748041 -0.2224927 0.01593411)
(0 0 1)
(-0.8342789 -0.5507026 0.02655716)
(0 0 1)
(-0.4338287 -0.9008544 0.01593444)
(0 0 1)
(-0.08960779 -0.995623 0.02655707)
(0 0 1)
(-0.2659016 -0.9634733 0.03186704)
(0 0 1)
(-0.9906002 0.134186 0.02655722)
(0 0 1)
(-0.9507211 0.308908 0.02655715)
(-0 0 1)
(-0.8801483 0.4736279 0.03186701)
(-0.6871885 0.7254561 -0.03854095)
(0 0 1)
(1 0 0)
(0.02008232 0.7874457 0.6160568)
(-0 -0.9998125 -0.01936455)
(0 0 1)
(0 0 1)
(0.08960779 -0.995623 0.02655707)
(0 0 1)
(0.2659016 -0.9634733 0.03186704)
(0 0 1)
(0.4338287 -0.9008544 0.01593444)
(0 -0 1)
(-0.9190607 -0.3928256 0.03186694)
(0 0 1)
(-0.7225402 -0.6908187 0.02655667)
(-0 0 1)
(-0.5874865 -0.8086063 0.03186694)
(1 0 -0)
(-0.02433066 -0.7771956 -0.6287885)
(1 0 0)
(-0.02291807 -0.9952776 0.0943254)
(0 0 1)
(-0.7817321 0.6234108 0.01593431)
(0 0 1)
(-0.6576048 0.7526888 0.03186713)
(-0 0 1)
(-0.5127182 0.8581461 0.02655698)
(-0.8273507 0.5609578 -0.02858553)
(0 0 1)
(1 -0 -0)
(0.029884 0.8438725 0.5357109)
(1 -0 0)
(-0.03095783 -0.9995168 -0.002799735)
(1 0 0)
(-0.02265739 -0.994762 -0.09967558)
(0.02937371 0.9842449 0.1743535)
(1 -0 0)
(-0.2148136 -0.9759088 -0.03817256)
(0 0 1)
(-0 0 1)
(-0.1784661 0.9834299 0.03186662)
(-0 0 1)
(-0 0.999873 0.01593423)
(-0 0 1)
(-0.3512512 0.9359046 0.02655711)
(0 0 1)
(0.5874865 -0.8086063 0.03186694)
(1 0 -0)
(-0.02123275 -0.8343516 -0.5508235)
(1 0 0)
(-0.0309902 -0.9802637 -0.1952505)
(0.02419908 0.9627675 0.2692457)
(1 -0 -0)
(0 0 1)
(0.7225402 -0.6908187 0.02655667)
(-0.9284123 0.3699132 -0.03485442)
(0 -0 1)
(0 0 1)
(0.1784661 0.9834299 0.03186662)
(-0.4196947 -0.9071551 -0.03042921)
(0 0 1)
(0 -0 1)
(0.8342789 -0.5507026 0.02655716)
(1 0 0)
(0.02231525 0.8924881 0.4505185)
(1 0 -0)
(-0.02325728 -0.8832688 -0.4682898)
(1 0 0)
(-0.0223449 -0.9569986 -0.2892307)
(1 0 0)
(0.03035998 0.93193 0.3613652)
(-0.9861882 0.1616775 -0.03596022)
(0 0 1)
(-0.9981812 -0.05412 -0.02655674)
(0 0 1)
(-0.9628272 -0.2673276 -0.03872529)
(0 0 1)
(-0 0 1)
(0.9190607 -0.3928256 0.03186694)
(-0.6048331 -0.7956446 -0.03356373)
(-0 0 1)
(1 0 0)
(-0.02574276 -0.9242855 -0.3808329)
(0 0 1)
(0.3512512 0.9359046 0.02655711)
(-0.8832502 -0.4682696 -0.02434406)
(0 0 1)
(0 0 1)
(0.9748041 -0.2224927 0.01593449)
(-0.7616436 -0.6469457 -0.03688214)
(-0 0 1)
(0 0 1)
(0.5127182 0.8581461 0.02655698)
(0 0 1)
(0.9984857 -0.04484206 0.03186712)
(0 0 1)
(0.9906002 0.134186 0.02655722)
(0 0 1)
(0.9507211 0.308908 0.02655715)
(0 0 1)
(0.8801483 0.4736279 0.03186701)
(0 0 1)
(0.6576048 0.7526888 0.03186713)
(-0 -0 1)
(0.7817321 0.6234108 0.01593448)
(0.3420003 -0.939637 -0.01086827)
(0 0 -1)
(0.4009051 -0.9160515 -0.01116927)
(0 0 -1)
(0.4582117 -0.8888042 -0.008316238)
(-0 0 -1)
(0.5136397 -0.8579214 -0.01204909)
(0 -0 -1)
(0.2817206 -0.9594555 -0.008868831)
(0 -0 -1)
(0.5670443 -0.8236531 -0.007508813)
(0 -0 -1)
(0.6181177 -0.7860013 -0.01150578)
(0 0 -1)
(0.6667331 -0.745224 -0.01039567)
(0 0 -1)
(0.7126618 -0.7014429 -0.009539445)
(0 0 -1)
(0.2202953 -0.9753594 -0.01199681)
(-0 0 -1)
(0.755696 -0.6548151 -0.01185989)
(0 0 -1)
(0.1579993 -0.9874258 -0.005144516)
(-0 0 -1)
(0.7957481 -0.6055989 -0.005906264)
(0 0 -1)
(0.09504946 -0.9954038 -0.01170357)
(0 0 -1)
(0.03172581 -0.9994467 -0.00998897)
(-0 0 -1)
(0.8325108 -0.5538809 -0.01190159)
(0 0 -1)
(0.8659875 -0.4999777 -0.009378653)
(0 -0 -1)
(-0.03172581 -0.9994467 -0.00998897)
(0 0 -1)
(-0.09504946 -0.9954038 -0.01170357)
(0 0 -1)
(0.8959443 -0.4440418 -0.01052184)
(0 0 -1)
(0.922294 -0.38632 -0.01142921)
(0 0 -1)
(-0.1579977 -0.9874157 -0.006851739)
(0 0 -1)
(-0.2202953 -0.9753594 -0.01199681)
(0 0 -1)
(0 0 -1)
(0.9449724 -0.327059 -0.007718471)
(-0.2817206 -0.9594555 -0.008868831)
(-0 0 -1)
(0.9637722 -0.266454 -0.01205575)
(0 0 -1)
(0.9787702 -0.2047999 -0.008121161)
(0 0 -1)
(-0.3420003 -0.939637 -0.01086827)
(0 0 -1)
(-0.4009051 -0.9160515 -0.01116927)
(0 0 -1)
(0 0 -1)
(0.9897587 -0.1423059 -0.01126101)
(0.9967971 -0.07924478 -0.01075707)
(0 0 -1)
(-0.4582117 -0.8888042 -0.008316238)
(0 0 -1)
(-0.5136397 -0.8579214 -0.01204909)
(0 -0 -1)
(0 0 -1)
(0.9998332 -0.01586605 -0.009044306)
(-0.5670443 -0.8236531 -0.007508813)
(0 0 -1)
(0.9987958 0.04757866 -0.0119703)
(0 0 -1)
(0.9938166 0.1108361 -0.006622325)
(0 0 -1)
(-0.6181177 -0.7860013 -0.01150578)
(-0 -0 -1)
(-0.6667331 -0.745224 -0.01039567)
(0 0 -1)
(0 0 -1)
(0.9847398 0.1736352 -0.01176189)
(0.9717642 0.2357487 -0.009843316)
(0 0 -1)
(-0.7126618 -0.7014429 -0.009539445)
(-0 0 -1)
(-0.755696 -0.6548151 -0.01185989)
(0 0 -1)
(0 0 -1)
(0.9548536 0.296904 -0.01013016)
(-0 -0 -1)
(-0.795747 -0.605598 -0.006149948)
(0.9340844 0.3568623 -0.0116435)
(0 0 -1)
(0 0 -1)
(-0.8325108 -0.5538809 -0.01190159)
(0 0 -1)
(0.9096094 0.4154042 -0.007074727)
(0 -0 -1)
(-0.8659875 -0.4999777 -0.009378653)
(-0 0 -1)
(-0.8959443 -0.4440418 -0.01052184)
(0 0 -1)
(0.8813893 0.4722376 -0.01201928)
(-0 -0 -1)
(-0.922294 -0.38632 -0.01142921)
(-0 0 -1)
(-0.9449724 -0.327059 -0.007718471)
(0.8496935 0.5272053 -0.008689482)
(0 -0 -1)
(-0 -0 -1)
(-0.9637722 -0.266454 -0.01205575)
(0 0 -1)
(-0.9787702 -0.2047999 -0.008121161)
(-0 0 -1)
(-0.9897587 -0.1423059 -0.01126101)
(-0 0 -1)
(-0.9967971 -0.07924478 -0.01075707)
(0 0 -1)
(0.8145267 0.5800223 -0.01097361)
(-0 0 -1)
(-0.9998332 -0.01586605 -0.009044306)
(-0 0 -1)
(-0.9987958 0.04757866 -0.0119703)
(0.7760991 0.6305138 -0.01107491)
(0 0 -1)
(-0 0 -1)
(-0.9938239 0.1108369 -0.005404093)
(-0 0 -1)
(-0.9847398 0.1736352 -0.01176189)
(-0 0 -1)
(-0.9717642 0.2357487 -0.009843316)
(0 0 -1)
(-0.9548536 0.296904 -0.01013016)
(0 -0 -1)
(-0.9340844 0.3568623 -0.0116435)
(0 0 -1)
(0.7345649 0.6784851 -0.008505507)
(0 -0 -1)
(-0.9096094 0.4154042 -0.007074727)
(0 0 -1)
(0.690029 0.7236817 -0.0120372)
(0 0 -1)
(-0.8813893 0.4722376 -0.01201928)
(0 -0 -1)
(-0.8496935 0.5272053 -0.008689482)
(0 0 -1)
(0.6427705 0.7660241 -0.007295051)
(0 0 -1)
(-0.8145267 0.5800223 -0.01097361)
(0 0 -1)
(0.5928679 0.8052165 -0.01157737)
(0 0 -1)
(-0.7760991 0.6305138 -0.01107491)
(0 0 -1)
(-0.7345649 0.6784851 -0.008505507)
(0 0 -1)
(-0.690029 0.7236817 -0.0120372)
(0 0 -1)
(0.5406129 0.8412088 -0.01026579)
(0 0 -1)
(-0.6427705 0.7660241 -0.007295051)
(0 0 -1)
(0.4861742 0.8738082 -0.009693768)
(0 0 -1)
(-0.5928679 0.8052165 -0.01157737)
(-0 0 -1)
(0.4297652 0.9028634 -0.01181235)
(0 0 -1)
(0.3716563 0.9283532 -0.005656179)
(0 0 -1)
(-0.5406129 0.8412088 -0.01026579)
(0 0 -1)
(0.3120109 0.9500035 -0.01193866)
(0 0 -1)
(-0.4297652 0.9028634 -0.01181235)
(0 0 -1)
(-0.4861742 0.8738082 -0.009693768)
(0.251137 0.9679077 -0.009213155)
(0 0 -1)
(0.1892402 0.9818731 -0.01064293)
(0 0 -1)
(0.1265844 0.9918909 -0.01134762)
(0 0 -1)
(0.06342274 0.9979553 -0.007921585)
(0 0 -1)
(0 0.9999273 -0.01205819)
(-0 0 -1)
(0 0 -1)
(-0.3716547 0.9283491 -0.006389004)
(-0.06342274 0.9979553 -0.007921585)
(0 0 -1)
(-0.1265844 0.9918909 -0.01134762)
(0 0 -1)
(-0.1892402 0.9818731 -0.01064293)
(0 0 -1)
(-0.251137 0.9679077 -0.009213155)
(0 0 -1)
(0 0 -1)
(-0.3120109 0.9500035 -0.01193866)
(0.2993501 0.9540999 0.009101136)
(0 0 1)
(0.363075 0.9317028 0.01031459)
(0 0 1)
(0.2342504 0.9721056 0.01172144)
(0 0 1)
(0.4251415 0.9050569 0.01125806)
(0 0 1)
(0.168099 0.9857556 0.005347232)
(0 0 1)
(0.4852882 0.8743237 0.007311927)
(0 0 1)