/*--------------------------------*- C++ -*----------------------------------*\
| =========                 |                                                 |
| \\      /  F ield         | OpenFOAM: The Open Source CFD Toolbox           |
|  \\    /   O peration     | Version:  v2006                                 |
|   \\  /    A nd           | Website:  www.openfoam.com                      |
|    \\/     M anipulation  |                                                 |
\*---------------------------------------------------------------------------*/
FoamFile
{
    version     2.0;
    format      ascii;
    class       extendedFeatureEdgeMesh;
    location    "constant/extendedFeatureEdgeMesh";
    object      rotor.extendedFeatureEdgeMesh;
}
// * * * * * * * * * * * * * * * * * * * * * * * * * * * * * * * * * * * * * //

// points

204
(
(-0.02443623 0.2773134 -0.1187056)
(-0.04415729 0.2748636 -0.1187056)
(-0.2779684 0.01527831 -0.1187056)
(-0.2783501 -0.004590655 -0.1187056)
(0.01527831 0.2779684 -0.1187056)
(-0.004590655 0.2783501 -0.1187056)
(0.03506943 0.2761703 -0.1187056)
(0.05468183 0.2729648 -0.1187056)
(0.2748636 0.04415729 -0.1187056)
(0.2710132 0.06365332 -0.1187056)
(0.2133693 -0.1788112 -0.1187056)
(0.2255819 -0.163134 -0.1187056)
(0.02443623 -0.2773134 -0.1187056)
(0.04415729 -0.2748636 -0.1187056)
(-0.01527831 -0.2779684 -0.1187056)
(0.004590655 -0.2783501 -0.1187056)
(-0.03506943 -0.2761703 -0.1187056)
(-0.05468183 -0.2729648 -0.1187056)
(-0.2748636 -0.04415729 -0.1187056)
(-0.2710132 -0.06365332 -0.1187056)
(0.170484 -0.2200797 -0.1187056)
(0.18575 -0.2073568 -0.1187056)
(0.2000694 -0.1935772 -0.1187056)
(0.2683683 -0.0740156 -0.1187056)
(0.2729648 -0.05468183 -0.1187056)
(0.2624044 -0.0929722 -0.1187056)
(-0.170484 0.2200797 -0.1187056)
(-0.18575 0.2073568 -0.1187056)
(-0.2000694 0.1935772 -0.1187056)
(-0.2133693 0.1788112 -0.1187056)
(-0.2255819 0.163134 -0.1187056)
(-0.2366449 0.1466255 -0.1187056)
(-0.2683683 0.0740156 -0.1187056)
(-0.2729648 0.05468183 -0.1187056)
(-0.2624044 0.0929722 -0.1187056)
(-0.2200797 -0.170484 -0.1187056)
(-0.2073568 -0.18575 -0.1187056)
(-0.1935772 -0.2000694 -0.1187056)
(-0.1788112 -0.2133693 -0.1187056)
(-0.163134 -0.2255819 -0.1187056)
(-0.1466255 -0.2366449 -0.1187056)
(-0.1293699 -0.2465021 -0.1187056)
(-0.111455 -0.2551032 -0.1187056)
(-0.0929722 -0.2624044 -0.1187056)
(-0.0740156 -0.2683683 -0.1187056)
(0.1543494 -0.2316812 -0.1187056)
(0.2366449 -0.1466255 -0.1187056)
(0.2465021 -0.1293699 -0.1187056)
(-0.2591958 -0.1015746 -0.1187056)
(-0.2512892 -0.1198066 -0.1187056)
(0.2551032 -0.111455 -0.1187056)
(-0.2657817 -0.082825 -0.1187056)
(-0.2773134 -0.02443623 -0.1187056)
(0.2761703 -0.03506943 -0.1187056)
(0.2779684 -0.01527831 -0.1187056)
(0.2783501 0.004590655 -0.1187056)
(0.2773134 0.02443623 -0.1187056)
(-0.2761703 0.03506943 -0.1187056)
(0.2657817 0.082825 -0.1187056)
(0.0929722 0.2624044 -0.1187056)
(0.0740156 0.2683683 -0.1187056)
(-0.2551032 0.111455 -0.1187056)
(-0.2465021 0.1293699 -0.1187056)
(0.2591958 0.1015746 -0.1187056)
(0.2512892 0.1198066 -0.1187056)
(0.242102 0.1374281 -0.1187056)
(0.2316812 0.1543494 -0.1187056)
(0.2200797 0.170484 -0.1187056)
(0.2073568 0.18575 -0.1187056)
(0.1935772 0.2000694 -0.1187056)
(0.1788112 0.2133693 -0.1187056)
(0.163134 0.2255819 -0.1187056)
(-0.1543494 0.2316812 -0.1187056)
(0.1466255 0.2366449 -0.1187056)
(0.1293699 0.2465021 -0.1187056)
(0.111455 0.2551032 -0.1187056)
(0.06365332 -0.2710132 -0.1187056)
(0.082825 -0.2657817 -0.1187056)
(0.1015746 -0.2591958 -0.1187056)
(0.1198066 -0.2512892 -0.1187056)
(0.1374281 -0.242102 -0.1187056)
(-0.2316812 -0.1543494 -0.1187056)
(-0.242102 -0.1374281 -0.1187056)
(-0.06365332 0.2710132 -0.1187056)
(-0.082825 0.2657817 -0.1187056)
(-0.1015746 0.2591958 -0.1187056)
(-0.1198066 0.2512892 -0.1187056)
(-0.1374281 0.242102 -0.1187056)
(0.07843097 0.2671113 -0.131404)
(0.09728663 0.2608356 -0.131404)
(0.05917563 0.272026 -0.131404)
(0.03961874 0.2755544 -0.131404)
(-0.272026 -0.05917563 -0.131404)
(-0.2755544 -0.03961874 -0.131404)
(-0.2671113 -0.07843097 -0.131404)
(-0.2608356 -0.09728663 -0.131404)
(0.2608356 -0.09728663 -0.131404)
(0.2532306 -0.1156466 -0.131404)
(0.2443353 -0.1334172 -0.131404)
(0.2341949 -0.1505079 -0.131404)
(0.1505079 -0.2341949 -0.131404)
(0.1334172 -0.2443353 -0.131404)
(0.1156466 -0.2532306 -0.131404)
(0.09728663 -0.2608356 -0.131404)
(0.1334172 0.2443353 -0.131404)
(0.1505079 0.2341949 -0.131404)
(0.1156466 0.2532306 -0.131404)
(0.2532306 0.1156466 -0.131404)
(0.2608356 0.09728663 -0.131404)
(0.2443353 0.1334172 -0.131404)
(0.2341949 0.1505079 -0.131404)
(0.2671113 0.07843097 -0.131404)
(0.272026 0.05917563 -0.131404)
(0.2755544 0.03961874 -0.131404)
(-0.07843097 -0.2671113 -0.131404)
(-0.09728663 -0.2608356 -0.131404)
(-0.05917563 -0.272026 -0.131404)
(-0.03961874 -0.2755544 -0.131404)
(-0.1334172 -0.2443353 -0.131404)
(-0.1505079 -0.2341949 -0.131404)
(-0.1156466 -0.2532306 -0.131404)
(-0.2532306 -0.1156466 -0.131404)
(-0.2443353 -0.1334172 -0.131404)
(-0.2341949 -0.1505079 -0.131404)
(0.2228611 -0.1668317 -0.131404)
(0.2103916 -0.1823054 -0.131404)
(0.19685 -0.19685 -0.131404)
(-0.19685 -0.19685 -0.131404)
(-0.2103916 -0.1823054 -0.131404)
(-0.2228611 -0.1668317 -0.131404)
(0.272026 -0.05917563 -0.131404)
(0.2671113 -0.07843097 -0.131404)
(0.2755544 -0.03961874 -0.131404)
(0.2776787 -0.01985997 -0.131404)
(-0.2776787 -0.01985997 -0.131404)
(0.01985997 0.2776787 -0.131404)
(0.278388 3.770896e-18 -0.131404)
(-0.278388 6.938894e-17 -0.131404)
(-4.917459e-17 0.278388 -0.131404)
(0.2776787 0.01985997 -0.131404)
(-0.2776787 0.01985997 -0.131404)
(-0.01985997 0.2776787 -0.131404)
(-0.2755544 0.03961874 -0.131404)
(-0.03961874 0.2755544 -0.131404)
(-0.272026 0.05917563 -0.131404)
(-0.05917563 0.272026 -0.131404)
(-0.2671113 0.07843097 -0.131404)
(-0.07843097 0.2671113 -0.131404)
(-0.2608356 0.09728663 -0.131404)
(-0.2532306 0.1156466 -0.131404)
(0.2228611 0.1668317 -0.131404)
(-0.2341949 0.1505079 -0.131404)
(-0.2228611 0.1668317 -0.131404)
(-0.2103916 0.1823054 -0.131404)
(-0.19685 0.19685 -0.131404)
(-0.1505079 0.2341949 -0.131404)
(-0.1334172 0.2443353 -0.131404)
(-0.1156466 0.2532306 -0.131404)
(-0.09728663 0.2608356 -0.131404)
(-0.2443353 0.1334172 -0.131404)
(0.19685 0.19685 -0.131404)
(0.2103916 0.1823054 -0.131404)
(0.1668317 0.2228611 -0.131404)
(-0.1823054 0.2103916 -0.131404)
(-0.1668317 0.2228611 -0.131404)
(0.1823054 0.2103916 -0.131404)
(-0.1668317 -0.2228611 -0.131404)
(-0.01985997 -0.2776787 -0.131404)
(0.07843097 -0.2671113 -0.131404)
(-8.326616e-17 -0.278388 -0.131404)
(0.1823054 -0.2103916 -0.131404)
(0.1668317 -0.2228611 -0.131404)
(-0.1823054 -0.2103916 -0.131404)
(0.01985997 -0.2776787 -0.131404)
(0.03961874 -0.2755544 -0.131404)
(0.05917563 -0.272026 -0.131404)
(-0.02740612 0.03436618 -0.0014896)
(-0.009781131 0.04285393 -0.0014896)
(-0.03960299 0.01907179 -0.0014896)
(-0.043956 3.469447e-17 -0.0014896)
(0.009781131 0.04285393 -0.0014896)
(-0.02740612 -0.03436618 -0.0014896)
(-0.03960299 -0.01907179 -0.0014896)
(0.02740612 0.03436618 -0.0014896)
(0.03960299 0.01907179 -0.0014896)
(0.043956 -2.785442e-17 -0.0014896)
(0.03960299 -0.01907179 -0.0014896)
(0.02740612 -0.03436618 -0.0014896)
(0.009781131 -0.04285393 -0.0014896)
(-0.009781131 -0.04285393 -0.0014896)
(-0.03960299 0.01907179 -0.1187056)
(-0.02740612 0.03436618 -0.1187056)
(-0.043956 2.775558e-17 -0.1187056)
(-0.009781131 0.04285393 -0.1187056)
(0.009781131 0.04285393 -0.1187056)
(0.02740612 0.03436618 -0.1187056)
(0.03960299 0.01907179 -0.1187056)
(0.043956 1.477493e-17 -0.1187056)
(0.03960299 -0.01907179 -0.1187056)
(0.02740612 -0.03436618 -0.1187056)
(0.009781131 -0.04285393 -0.1187056)
(-0.009781131 -0.04285393 -0.1187056)
(-0.02740612 -0.03436618 -0.1187056)
(-0.03960299 -0.01907179 -0.1187056)
)

// edges

204
(
(0 1)
(2 3)
(4 5)
(6 4)
(7 6)
(8 9)
(10 11)
(12 13)
(14 15)
(16 14)
(17 16)
(18 19)
(20 21)
(21 22)
(22 10)
(23 24)
(25 23)
(26 27)
(27 28)
(28 29)
(29 30)
(30 31)
(32 33)
(34 32)
(35 36)
(37 38)
(38 39)
(39 40)
(41 42)
(42 43)
(44 17)
(45 20)
(46 47)
(48 49)
(50 25)
(47 50)
(19 51)
(3 52)
(52 18)
(24 53)
(53 54)
(54 55)
(55 56)
(57 2)
(33 57)
(9 58)
(59 60)
(60 7)
(61 34)
(62 61)
(63 64)
(31 62)
(64 65)
(66 67)
(68 69)
(70 71)
(72 26)
(71 73)
(74 75)
(75 59)
(5 0)
(56 8)
(15 12)
(76 77)
(13 76)
(43 44)
(77 78)
(78 79)
(79 80)
(40 41)
(36 37)
(81 35)
(49 82)
(11 46)
(82 81)
(51 48)
(58 63)
(67 68)
(69 70)
(1 83)
(83 84)
(84 85)
(85 86)
(86 87)
(73 74)
(65 66)
(80 45)
(87 72)
(88 89)
(90 88)
(91 90)
(92 93)
(94 92)
(95 94)
(96 97)
(97 98)
(98 99)
(100 101)
(101 102)
(102 103)
(104 105)
(106 104)
(107 108)
(109 107)
(110 109)
(108 111)
(111 112)
(112 113)
(114 115)
(116 114)
(117 116)
(118 119)
(120 118)
(115 120)
(121 95)
(122 121)
(123 122)
(124 125)
(125 126)
(127 128)
(128 129)
(99 124)
(129 123)
(130 131)
(132 130)
(133 132)
(93 134)
(135 91)
(136 133)
(134 137)
(138 135)
(139 136)
(113 139)
(137 140)
(141 138)
(140 142)
(143 141)
(142 144)
(145 143)
(144 146)
(147 145)
(148 149)
(150 110)
(151 152)
(152 153)
(153 154)
(155 156)
(156 157)
(157 158)
(146 148)
(149 159)
(159 151)
(160 161)
(161 150)
(105 162)
(163 164)
(154 163)
(165 160)
(162 165)
(164 155)
(89 106)
(158 147)
(131 96)
(119 166)
(167 117)
(103 168)
(169 167)
(170 171)
(126 170)
(172 127)
(173 169)
(166 172)
(174 173)
(171 100)
(175 174)
(168 175)
(176 177)
(178 176)
(179 178)
(177 180)
(181 182)
(180 183)
(183 184)
(184 185)
(185 186)
(186 187)
(187 188)
(188 189)
(189 181)
(182 179)
(190 191)
(192 190)
(191 193)
(193 194)
(194 195)
(195 196)
(196 197)
(198 199)
(197 198)
(199 200)
(200 201)
(201 202)
(202 203)
(203 192)
)

// concaveStart mixedStart nonFeatureStart
0 0 0
// internalStart flatStart openStart multipleStart
190 204 204 204
// normals

408
(
(0 0 1)
(-0.1232695 0.9923236 0.009924185)
(0 0 1)
(-0.9997663 0.01920678 0.009923442)
(0 0 1)
(0.01920678 0.9997663 0.009923442)
(0 0 1)
(0.09048091 0.9958487 0.009923873)
(0 0 1)
(0.1612932 0.9868566 0.009925049)
(0 0 1)
(0.9810013 0.1937474 0.009923965)
(0 0 1)
(0.7888437 -0.6145137 0.009923977)
(0 0 1)
(0.1232695 -0.9923236 0.009924185)
(0 0 1)
(-0.01920678 -0.9997663 0.009923442)
(0 0 1)
(-0.09048091 -0.9958487 0.009923873)
(0 0 1)
(-0.1612932 -0.9868566 0.009925049)
(0 -0 1)
(-0.9810013 -0.1937474 0.009923965)
(0 0 1)
(0.640192 -0.7681508 0.009923694)
(0 0 1)
(0.6933601 -0.7205229 0.009924271)
(-0 0 1)
(0.742995 -0.6692234 0.009923391)
(0 0 1)
(0.9728357 -0.2312837 0.009925623)
(0 0 1)
(0.9538576 -0.3000954 0.00992496)
(0 0 1)
(-0.640192 0.7681508 0.009923694)
(0 0 1)
(-0.6933601 0.7205229 0.009924271)
(0 -0 1)
(-0.742995 0.6692234 0.009923391)
(0 0 1)
(-0.7888437 0.6145137 0.009923977)
(0 0 1)
(-0.8306731 0.556672 0.009923568)
(0 0 1)
(-0.9728357 0.2312837 0.009925623)
(0 0 1)
(-0.9538576 0.3000954 0.00992496)
(0 0 1)
(-0.7681508 -0.640192 0.009923694)
(0 0 1)
(-0.6692234 -0.742995 0.009923391)
(0 0 1)
(-0.6145137 -0.7888437 0.009923977)
(0 0 1)
(-0.556672 -0.8306731 0.009923568)
(0 0 1)
(-0.4327892 -0.9014405 0.009923582)
(0 0 1)
(-0.3673778 -0.9300188 0.009924129)
(0 0 1)
(-0.2312837 -0.9728357 0.009925623)
(0 0 1)
(0.583762 -0.8118642 0.009924616)
(0 -0 1)
(0.8682689 -0.4959945 0.009923723)
(0 0 1)
(-0.9173978 -0.3978477 0.00992429)
(0 0 1)
(0.9300188 -0.3673778 0.009924129)
(0 0 1)
(0.9014405 -0.4327892 0.009923582)
(0 0 1)
(-0.9646798 -0.2632384 0.009923969)
(0 0 1)
(-0.9985892 -0.05216483 0.00992427)
(0 0 1)
(-0.9923236 -0.1232695 0.009924185)
(0 -0 1)
(0.9868566 -0.1612932 0.009925049)
(0 -0 1)
(0.9958487 -0.09048091 0.009923873)
(0 -0 1)
(0.9997663 -0.01920678 0.009923442)
(0 0 1)
(0.9985892 0.05216483 0.00992427)
(0 0 1)
(-0.9958487 0.09048091 0.009923873)
(0 0 1)
(-0.9868566 0.1612932 0.009925049)
(0 0 1)
(0.9646798 0.2632384 0.009923969)
(-0 -0 1)
(0.3000954 0.9538576 0.00992496)
(0 -0 1)
(0.2312837 0.9728357 0.009925623)
(0 0 1)
(-0.9300188 0.3673778 0.009924129)
(-0 0 1)
(-0.9014405 0.4327892 0.009923582)
(0 0 1)
(0.9173978 0.3978477 0.00992429)
(0 0 1)
(-0.8682689 0.4959945 0.009923723)
(0 0 1)
(0.8866791 0.4622788 0.009923706)
(0 -0 1)
(0.8118642 0.583762 0.009924616)
(-0 -0 1)
(0.7205229 0.6933601 0.009924271)
(0 -0 1)
(0.6145137 0.7888437 0.009923977)
(0 0 1)
(-0.583762 0.8118642 0.009924616)
(0 -0 1)
(0.556672 0.8306731 0.009923568)
(-0 0 1)
(0.4327892 0.9014405 0.009923582)
(0 -0 1)
(0.3673778 0.9300188 0.009924129)
(-0 0 1)
(-0.05216483 0.9985892 0.00992427)
(0 0 1)
(0.9923236 0.1232695 0.009924185)
(0 0 1)
(0.05216483 -0.9985892 0.00992427)
(0 0 1)
(0.2632384 -0.9646798 0.009923969)
(0 0 1)
(0.1937474 -0.9810013 0.009923965)
(0 0 1)
(-0.3000954 -0.9538576 0.00992496)
(0 0 1)
(0.3313859 -0.9434431 0.009923077)
(0 0 1)
(0.3978477 -0.9173978 0.00992429)
(0 0 1)
(0.4622788 -0.8866791 0.009923706)
(-0 0 1)
(-0.4959945 -0.8682689 0.009923723)
(0 0 1)
(-0.7205229 -0.6933601 0.009924271)
(0 0 1)
(-0.8118642 -0.583762 0.009924616)
(0 -0 1)
(-0.8866791 -0.4622788 0.009923706)
(0 0 1)
(0.8306731 -0.556672 0.009923568)
(0 0 1)
(-0.851441 -0.5243566 0.00992341)
(0 0 1)
(-0.9434431 -0.3313859 0.009923077)
(0 0 1)
(0.9434431 0.3313859 0.009923077)
(0 0 1)
(0.7681508 0.640192 0.009923694)
(0 0 1)
(0.6692234 0.742995 0.009923391)
(-0 0 1)
(-0.1937474 0.9810013 0.009923965)
(-0 0 1)
(-0.2632384 0.9646798 0.009923969)
(0 0 1)
(-0.3313859 0.9434431 0.009923077)
(-0 0 1)
(-0.3978477 0.9173978 0.00992429)
(0 0 1)
(-0.4622788 0.8866791 0.009923706)
(0 0 1)
(0.4959945 0.8682689 0.009923723)
(0 0 1)
(0.851441 0.5243566 0.00992341)
(-0 0 1)
(0.5243566 -0.851441 0.00992341)
(0 -0 1)
(-0.5243566 0.851441 0.00992341)
(0 0 -1)
(0.3157842 0.9487791 -0.009923141)
(-0 0 -1)
(0.2472947 0.9688895 -0.00992239)
(-0 0 -1)
(0.1775443 0.9840628 -0.009922053)
(0 0 -1)
(-0.9840628 -0.1775443 -0.009923578)
(0 0 -1)
(-0.9688895 -0.2472947 -0.009923852)
(0 0 -1)
(-0.9487791 -0.3157842 -0.00992345)
(0 0 -1)
(0.9238341 -0.3826645 -0.009924091)
(0 0 -1)
(0.8941812 -0.4475952 -0.009923923)
(0 -0 -1)
(0.8599719 -0.5102449 -0.009923843)
(0 -0 -1)
(0.5102449 -0.8599719 -0.009924116)
(0 -0 -1)
(0.4475952 -0.8941812 -0.009922952)
(0 -0 -1)
(0.3826645 -0.9238341 -0.009924726)
(0 0 -1)
(0.5102449 0.8599719 -0.009923843)
(-0 0 -1)
(0.4475952 0.8941812 -0.009923923)
(0 0 -1)
(0.9238341 0.3826645 -0.009924726)
(0 0 -1)
(0.8941812 0.4475952 -0.009922952)
(0 0 -1)
(0.8599719 0.5102449 -0.009924116)
(0 0 -1)
(0.9487791 0.3157842 -0.00992345)
(0 0 -1)
(0.9688895 0.2472947 -0.009923852)
(0 0 -1)
(0.9840628 0.1775443 -0.009923578)
(0 0 -1)
(-0.3157842 -0.9487791 -0.009923141)
(0 0 -1)
(-0.2472947 -0.9688895 -0.00992239)
(0 0 -1)
(-0.1775443 -0.9840628 -0.009922053)
(0 0 -1)
(-0.5102449 -0.8599719 -0.009923843)
(0 0 -1)
(-0.4475952 -0.8941812 -0.009923923)
(0 0 -1)
(-0.3826645 -0.9238341 -0.009924091)
(0 0 -1)
(-0.9238341 -0.3826645 -0.009924726)
(0 0 -1)
(-0.8941812 -0.4475952 -0.009922952)
(0 0 -1)
(-0.8599719 -0.5102449 -0.009924116)
(0 0 -1)
(0.7786028 -0.6274386 -0.009924024)
(0 -0 -1)
(0.7318588 -0.681384 -0.009923502)
(0 0 -1)
(-0.7318588 -0.681384 -0.009923727)
(-0 0 -1)
(-0.7786028 -0.6274386 -0.009923079)
(0 0 -1)
(0.8213806 -0.5702941 -0.00992389)
(-0 0 -1)
(-0.8213806 -0.5702941 -0.009924017)
(0 0 -1)
(0.9688895 -0.2472947 -0.00992239)
(0 0 -1)
(0.9840628 -0.1775443 -0.009922053)
(0 0 -1)
(0.9942214 -0.1068895 -0.009922734)
(0 0 -1)
(-0.9942214 -0.1068895 -0.009923069)
(0 0 -1)
(0.1068895 0.9942214 -0.009922734)
(0 0 -1)
(0.9993136 -0.0356903 -0.00992397)
(0 0 -1)
(-0.9993136 -0.0356903 -0.009923999)
(0 0 -1)
(0.0356903 0.9993136 -0.00992397)
(0 0 -1)
(0.9993136 0.0356903 -0.009923999)
(0 0 -1)
(0.9942214 0.1068895 -0.009923069)
(0 0 -1)
(-0.9993136 0.0356903 -0.00992397)
(0 0 -1)
(-0.0356903 0.9993136 -0.009923999)
(0 0 -1)
(-0.9942214 0.1068895 -0.009922734)
(0 0 -1)
(-0.1068895 0.9942214 -0.009923069)
(0 0 -1)
(-0.9840628 0.1775443 -0.009922053)
(0 0 -1)
(-0.1775443 0.9840628 -0.009923578)
(0 0 -1)
(-0.9688895 0.2472947 -0.00992239)
(0 0 -1)
(-0.2472947 0.9688895 -0.009923852)
(0 -0 -1)
(-0.9238341 0.3826645 -0.009924091)
(0 0 -1)
(0.8213806 0.5702941 -0.009924017)
(0 0 -1)
(-0.8213806 0.5702941 -0.00992389)
(0 0 -1)
(-0.7786028 0.6274386 -0.009924024)
(0 0 -1)
(-0.7318588 0.681384 -0.009923502)
(-0 0 -1)
(-0.5102449 0.8599719 -0.009924116)
(0 0 -1)
(-0.4475952 0.8941812 -0.009922952)
(0 0 -1)
(-0.3826645 0.9238341 -0.009924726)
(0 0 -1)
(-0.9487791 0.3157842 -0.009923141)
(0 0 -1)
(-0.8941812 0.4475952 -0.009923923)
(0 0 -1)
(-0.8599719 0.5102449 -0.009923843)
(0 0 -1)
(0.7318588 0.681384 -0.009923727)
(0 0 -1)
(0.7786028 0.6274386 -0.009923079)
(-0 0 -1)
(0.5702941 0.8213806 -0.00992389)
(0 0 -1)
(-0.6274386 0.7786028 -0.009923079)
(0 0 -1)
(-0.681384 0.7318588 -0.009923727)
(0 0 -1)
(0.681384 0.7318588 -0.009923502)
(-0 0 -1)
(0.6274386 0.7786028 -0.009924024)
(0 0 -1)
(-0.5702941 0.8213806 -0.009924017)
(0 0 -1)
(0.3826645 0.9238341 -0.009924091)
(0 0 -1)
(-0.3157842 0.9487791 -0.00992345)
(0 0 -1)
(0.9487791 -0.3157842 -0.009923141)
(0 0 -1)
(-0.5702941 -0.8213806 -0.00992389)
(0 -0 -1)
(-0.1068895 -0.9942214 -0.009922734)
(0 0 -1)
(0.3157842 -0.9487791 -0.00992345)
(0 -0 -1)
(-0.0356903 -0.9993136 -0.00992397)
(0 0 -1)
(0.6274386 -0.7786028 -0.009923079)
(0 0 -1)
(0.681384 -0.7318588 -0.009923727)
(0 0 -1)
(-0.681384 -0.7318588 -0.009923502)
(0 -0 -1)
(0.0356903 -0.9993136 -0.009923999)
(0 -0 -1)
(-0.6274386 -0.7786028 -0.009924024)
(0 -0 -1)
(0.1068895 -0.9942214 -0.009923069)
(-0 0 -1)
(0.5702941 -0.8213806 -0.009924017)
(0 -0 -1)
(0.1775443 -0.9840628 -0.009923578)
(0 -0 -1)
(0.2472947 -0.9688895 -0.009923852)
(-0.4336838 0.9005533 0.03036685)
(0 -0 1)
(-0.7792654 0.6214435 0.08095348)
(0 -0 1)
(-0.9724777 0.2219617 0.07085311)
(0 0 1)
(-0 0.996439 0.08431688)
(0 -0 1)
(-0.7792654 -0.6214435 0.08095348)
(0 0 1)
(0.433251 0.8996545 0.05399487)
(0 -0 1)
(0.7792654 0.6214435 0.08095348)
(0 -0 1)
(0.9724777 0.2219617 0.07085311)
(0 0 1)
(0.9724777 -0.2219617 0.07085311)
(0 -0 1)
(0.7792654 -0.6214435 0.08095348)
(0 0 1)
(0.4336838 -0.9005533 0.03036685)
(0 0 1)
(0 -0.996439 0.08431688)
(0 0 1)
(-0.433251 -0.8996545 0.05399487)
(0 0 1)
(-0.9724777 -0.2219617 0.07085311)
(0 0 1)
(0 0 1)
(-0.7792654 0.6214435 -0.08095346)
(0 0 1)
(-0.9724777 0.2219617 -0.0708531)
(-0 0 1)
(-0.433251 0.8996545 -0.05399486)
(0 0 1)
(0 0.996439 -0.08431687)
(0 0 1)
(0.433251 0.8996545 -0.05399486)
(0 0 1)
(0.7792654 0.6214435 -0.08095346)
(0 0 1)
(0.9724777 0.2219617 -0.0708531)
(0 0 1)
(0.7792654 -0.6214435 -0.08095346)
(0 0 1)
(0.9724777 -0.2219617 -0.0708531)
(0 -0 1)
(0.433251 -0.8996545 -0.05399486)
(0 0 1)
(-0 -0.996439 -0.08431687)
(-0 -0 1)
(-0.433251 -0.8996545 -0.05399486)
(-0 0 1)
(-0.7792654 -0.6214435 -0.08095346)
(-0 -0 1)
(-0.9724777 -0.2219617 -0.0708531)
)

// normal volume types

408
(
0
0
0
0
0
0
0
0
0
0
0
0
0
0
0
0
0
0
0
0
0
0
0
0
0
0
0
0
0
0
0
0
0
0
0
0
0
0
0
0
0
0
0
0
0
0
0
0
0
0
0
0
0
0
0
0
0
0
0
0
0
0
0
0
0
0
0
0
0
0
0
0
0
0
0
0
0
0
0
0
0
0
0
0
0
0
0
0
0
0
0
0
0
0
0
0
0
0
0
0
0
0
0
0
0
0
0
0
0
0
0
0
0
0
0
0
0
0
0
0
0
0
0
0
0
0
0
0
0
0
0
0
0
0
0
0
0
0
0
0
0
0
0
0
0
0
0
0
0
0
0
0
0
0
0
0
0
0
0
0
0
0
0
0
0
0
0
0
0
0
0
0
0
0
0
0
0
0
0
0
0
0
0
0
0
0
0
0
0
0
0
0
0
0
0
0
0
0
0
0
0
0
0
0
0
0
0
0
0
0
0
0
0
0
0
0
0
0
0
0
0
0
0
0
0
0
0
0
0
0
0
0
0
0
0
0
0
0
0
0
0
0
0
0
0
0
0
0
0
0
0
0
0
0
0
0
0
0
0
0
0
0
0
0
0
0
0
0
0
0
0
0
0
0
0
0
0
0
0
0
0
0
0
0
0
0
0
0
0
0
0
0
0
0
0
0
0
0
0
0
0
0
0
0
0
0
0
0
0
0
0
0
0
0
0
0
0
0
0
0
0
0
0
0
0
0
0
0
0
0
0
0
0
0
0
0
0
0
0
0
0
0
0
0
0
0
0
0
0
0
0
0
0
0
0
0
0
0
0
0
0
0
0
0
0
0
0
0
0
0
0
0
0
0
0
0
0
0
0
0
0
0
0
0
0
0
0
0
0
0
0
0
0
0
0
0
0
0
0
0
0
0
0
0
0
0
0
0
)

// normalDirections

204
(
2(1 -1)
2(1 -1)
2(1 -1)
2(1 -1)
2(1 -1)
2(1 -1)
2(1 -1)
2(1 -1)
2(1 -1)
2(1 -1)
2(1 -1)
2(1 -1)
2(1 -1)
2(1 -1)
2(1 -1)
2(1 -1)
2(1 -1)
2(1 -1)
2(1 -1)
2(1 -1)
2(1 -1)
2(1 -1)
2(1 -1)
2(1 -1)
2(1 -1)
2(1 -1)
2(1 -1)
2(1 -1)
2(1 -1)
2(1 -1)
2(1 -1)
2(1 -1)
2(1 -1)
2(1 -1)
2(1 -1)
2(1 -1)
2(1 -1)
2(1 -1)
2(1 -1)
2(1 -1)
2(1 -1)
2(1 -1)
2(1 -1)
2(1 -1)
2(1 -1)
2(1 -1)
2(1 -1)
2(1 -1)
2(1 -1)
2(1 -1)
2(1 -1)
2(1 -1)
2(1 -1)
2(1 -1)
2(1 -1)
2(1 -1)
2(1 -1)
2(1 -1)
2(1 -1)
2(1 -1)
2(1 -1)
2(1 -1)
2(1 -1)
2(1 -1)
2(1 -1)
2(1 -1)
2(1 -1)
2(1 -1)
2(1 -1)
2(1 -1)
2(1 -1)
2(1 -1)
2(1 -1)
2(1 -1)
2(1 -1)
2(1 -1)
2(1 -1)
2(1 -1)
2(1 -1)
2(1 -1)
2(1 -1)
2(1 -1)
2(1 -1)
2(1 -1)
2(1 -1)
2(1 -1)
2(1 -1)
2(1 -1)
2(1 -1)
2(1 -1)
2(1 -1)
2(1 -1)
2(1 -1)
2(1 -1)
2(1 -1)
2(1 -1)
2(1 -1)
2(1 -1)
2(1 -1)
2(1 -1)
2(1 -1)
2(1 -1)
2(1 -1)
2(1 -1)
2(1 -1)
2(1 -1)
2(1 -1)
2(1 -1)
2(1 -1)
2(1 -1)
2(1 -1)
2(1 -1)
2(1 -1)
2(1 -1)
2(1 -1)
2(1 -1)
2(1 -1)
2(1 -1)
2(1 -1)
2(1 -1)
2(1 -1)
2(1 -1)
2(1 -1)
2(1 -1)
2(1 -1)
2(1 -1)
2(1 -1)
2(1 -1)
2(1 -1)
2(1 -1)
2(1 -1)
2(1 -1)
2(1 -1)
2(1 -1)
2(1 -1)
2(1 -1)
2(1 -1)
2(1 -1)
2(1 -1)
2(1 -1)
2(1 -1)
2(1 -1)
2(1 -1)
2(1 -1)
2(1 -1)
2(1 -1)
2(1 -1)
2(1 -1)
2(1 -1)
2(1 -1)
2(1 -1)
2(1 -1)
2(1 -1)
2(1 -1)
2(1 -1)
2(1 -1)
2(1 -1)
2(1 -1)
2(1 -1)
2(1 -1)
2(1 -1)
2(1 -1)
2(1 -1)
2(1 -1)
2(1 -1)
2(1 -1)
2(1 -1)
2(1 -1)
2(1 -1)
2(1 -1)
2(1 -1)
2(1 -1)
2(1 -1)
2(1 -1)
2(1 -1)
2(1 -1)
2(1 -1)
2(1 -1)
2(1 -1)
2(1 -1)
2(1 -1)
2(1 -1)
2(1 -1)
2(1 -1)
2(1 -1)
2(1 -1)
2(1 -1)
2(1 -1)
2(1 -1)
2(1 -1)
2(1 -1)
2(1 -1)
2(1 -1)
2(1 -1)
2(1 -1)
2(1 -1)
2(1 -1)
2(1 -1)
2(1 -1)
2(1 -1)
2(1 -1)
2(1 -1)
2(1 -1)
2(1 -1)
)

// edgeNormals

204
(
2(0 1)
2(2 3)
2(4 5)
2(6 7)
2(8 9)
2(10 11)
2(12 13)
2(14 15)
2(16 17)
2(18 19)
2(20 21)
2(22 23)
2(24 25)
2(26 27)
2(28 29)
2(30 31)
2(32 33)
2(34 35)
2(36 37)
2(38 39)
2(40 41)
2(42 43)
2(44 45)
2(46 47)
2(48 49)
2(50 51)
2(52 53)
2(54 55)
2(56 57)
2(58 59)
2(60 61)
2(62 63)
2(64 65)
2(66 67)
2(68 69)
2(70 71)
2(72 73)
2(74 75)
2(76 77)
2(78 79)
2(80 81)
2(82 83)
2(84 85)
2(86 87)
2(88 89)
2(90 91)
2(92 93)
2(94 95)
2(96 97)
2(98 99)
2(100 101)
2(102 103)
2(104 105)
2(106 107)
2(108 109)
2(110 111)
2(112 113)
2(114 115)
2(116 117)
2(118 119)
2(120 121)
2(122 123)
2(124 125)
2(126 127)
2(128 129)
2(130 131)
2(132 133)
2(134 135)
2(136 137)
2(138 139)
2(140 141)
2(142 143)
2(144 145)
2(146 147)
2(148 149)
2(150 151)
2(152 153)
2(154 155)
2(156 157)
2(158 159)
2(160 161)
2(162 163)
2(164 165)
2(166 167)
2(168 169)
2(170 171)
2(172 173)
2(174 175)
2(176 177)
2(178 179)
2(180 181)
2(182 183)
2(184 185)
2(186 187)
2(188 189)
2(190 191)
2(192 193)
2(194 195)
2(196 197)
2(198 199)
2(200 201)
2(202 203)
2(204 205)
2(206 207)
2(208 209)
2(210 211)
2(212 213)
2(214 215)
2(216 217)
2(218 219)
2(220 221)
2(222 223)
2(224 225)
2(226 227)
2(228 229)
2(230 231)
2(232 233)
2(234 235)
2(236 237)
2(238 239)
2(240 241)
2(242 243)
2(244 245)
2(246 247)
2(248 249)
2(250 251)
2(252 253)
2(254 255)
2(256 257)
2(258 259)
2(260 261)
2(262 263)
2(264 265)
2(266 267)
2(268 269)
2(270 271)
2(272 273)
2(274 275)
2(276 277)
2(278 279)
2(280 281)
2(282 283)
2(284 285)
2(286 287)
2(288 289)
2(290 291)
2(292 293)
2(294 295)
2(296 297)
2(298 299)
2(300 301)
2(302 303)
2(304 305)
2(306 307)
2(308 309)
2(310 311)
2(312 313)
2(314 315)
2(316 317)
2(318 319)
2(320 321)
2(322 323)
2(324 325)
2(326 327)
2(328 329)
2(330 331)
2(332 333)
2(334 335)
2(336 337)
2(338 339)
2(340 341)
2(342 343)
2(344 345)
2(346 347)
2(348 349)
2(350 351)
2(352 353)
2(354 355)
2(356 357)
2(358 359)
2(360 361)
2(362 363)
2(364 365)
2(366 367)
2(368 369)
2(370 371)
2(372 373)
2(374 375)
2(376 377)
2(378 379)
2(380 381)
2(382 383)
2(384 385)
2(386 387)
2(388 389)
2(390 391)
2(392 393)
2(394 395)
2(396 397)
2(398 399)
2(400 401)
2(402 403)
2(404 405)
2(406 407)
)

// featurePointNormals
0()
// featurePointEdges
0()
// regionEdges
0()


// ************************************************************************* //
