/*--------------------------------*- C++ -*----------------------------------*\
| =========                 |                                                 |
| \\      /  F ield         | OpenFOAM: The Open Source CFD Toolbox           |
|  \\    /   O peration     | Version:  4.x                                   |
|   \\  /    A nd           | Web:      www.OpenFOAM.org                      |
|    \\/     M anipulation  |                                                 |
\*---------------------------------------------------------------------------*/
FoamFile
{
    version     2.0;
    format      ascii;
    class       polyBoundaryMesh;
    location    "constant/polyMesh";
    object      boundary;
}
// * * * * * * * * * * * * * * * * * * * * * * * * * * * * * * * * * * * * * //

6
(
    inlet
    {
        type            patch;
        nFaces          373;
        startFace       17861;
    }
    outlet
    {
        type            patch;
        nFaces          0;
        startFace       18234;
    }
    sides
    {
        type            symmetry;
        inGroups        1(symmetry);
        nFaces          0;
        startFace       18234;
    }
    walls
    {
        type            wall;
        inGroups        1(wall);
        nFaces          1517;
        startFace       18234;
    }
    procBoundary2to1
    {
        type            processor;
        inGroups        1(processor);
        nFaces          143;
        startFace       19751;
        matchTolerance  0.0001;
        transform       unknown;
        myProcNo        2;
        neighbProcNo    1;
    }
    procBoundary2to3
    {
        type            processor;
        inGroups        1(processor);
        nFaces          633;
        startFace       19894;
        matchTolerance  0.0001;
        transform       unknown;
        myProcNo        2;
        neighbProcNo    3;
    }
)

// ************************************************************************* //
