/*--------------------------------*- C++ -*----------------------------------*\
| =========                 |                                                 |
| \\      /  F ield         | OpenFOAM: The Open Source CFD Toolbox           |
|  \\    /   O peration     | Version:  v2006                                 |
|   \\  /    A nd           | Website:  www.openfoam.com                      |
|    \\/     M anipulation  |                                                 |
\*---------------------------------------------------------------------------*/
FoamFile
{
    version     2.0;
    format      ascii;
    class       featureEdgeMesh;
    location    "constant/triSurface";
    object      blades.eMesh;
}
// * * * * * * * * * * * * * * * * * * * * * * * * * * * * * * * * * * * * * //


// points:

1206
(
(-0.1887612 -0.2046194 -0.1187056)
(-0.1719055 -0.2189711 -0.1187056)
(-0.1887612 -0.2046194 0.0180464)
(-0.1719055 -0.2189711 0.0180464)
(0.082825 -0.2657817 -0.1187056)
(0.1036818 -0.2583601 -0.1187056)
(0.082825 -0.2657817 0.0180464)
(0.1036818 -0.2583601 0.0180464)
(0.2755874 -0.03938899 0.0180464)
(0.2755874 -0.03938899 -0.1187056)
(0.2715862 -0.06116228 0.0180464)
(0.2715862 -0.06116228 -0.1187056)
(0.1719055 0.2189711 0.0180464)
(0.1719055 0.2189711 -0.1187056)
(0.1887612 0.2046194 0.0180464)
(0.1887612 0.2046194 -0.1187056)
(-0.2715862 0.06116228 -0.1187056)
(-0.2755874 0.03938899 -0.1187056)
(-0.2715862 0.06116228 0.0180464)
(-0.2755874 0.03938899 0.0180464)
(-0.1036818 0.2583601 0.0180464)
(-0.1036818 0.2583601 -0.1187056)
(-0.082825 0.2657817 0.0180464)
(-0.082825 0.2657817 -0.1187056)
(-0.1788996 -0.2057172 -0.1187056)
(-0.1690014 -0.2064115 -0.1187056)
(-0.1522314 -0.2193654 -0.1187056)
(-0.1620723 -0.2193576 -0.1187056)
(-0.1423975 -0.2189947 -0.1187056)
(-0.1325852 -0.2182458 -0.1187056)
(-0.1195398 -0.2038143 -0.1187056)
(-0.1097688 -0.2020872 -0.1187056)
(-0.1000764 -0.1999627 -0.1187056)
(-0.07497243 -0.2059141 -0.1187056)
(-0.08435297 -0.2088887 -0.1187056)
(-0.1590832 -0.2067012 -0.1187056)
(-0.1491614 -0.2065858 -0.1187056)
(-0.1392525 -0.2060655 -0.1187056)
(-0.1293732 -0.2051411 -0.1187056)
(-0.09047885 -0.1974443 -0.1187056)
(-0.08099207 -0.1945363 -0.1187056)
(-0.0716319 -0.1912434 -0.1187056)
(-0.04761378 -0.1948585 -0.1187056)
(-0.05658923 -0.1988938 -0.1187056)
(-0.03880025 -0.1904808 -0.1187056)
(-0.03016166 -0.1857672 -0.1187056)
(-0.03576565 -0.174343 -0.1187056)
(-0.02726744 -0.1692209 -0.1187056)
(-0.0189854 -0.1637561 -0.1187056)
(-0.01093332 -0.1579579 -0.1187056)
(-0.003124628 -0.1518358 -0.1187056)
(0.004427656 -0.1454 -0.1187056)
(0.01171094 -0.1386614 -0.1187056)
(0.0187131 -0.1316311 -0.1187056)
(0.02542244 -0.1243208 -0.1187056)
(0.0318278 -0.1167427 -0.1187056)
(0.03791849 -0.1089095 -0.1187056)
(0.04368436 -0.1008342 -0.1187056)
(0.0491158 -0.09253026 -0.1187056)
(0.05420375 -0.08401155 -0.1187056)
(0.07049476 -0.08059066 -0.1187056)
(0.0658282 -0.08925471 -0.1187056)
(0.07482452 -0.07175348 -0.1187056)
(0.0751363 -0.07094494 -0.1187056)
(0.07533508 -0.07010148 -0.1187056)
(-0.06241394 -0.1875712 -0.1187056)
(-0.05335356 -0.1835258 -0.1187056)
(-0.04446586 -0.179114 -0.1187056)
(0.05893973 -0.07529225 -0.1187056)
(0.06331586 -0.0663869 -0.1187056)
(0.06373483 -0.06562835 -0.1187056)
(0.06425319 -0.0649339 -0.1187056)
(0.06486128 -0.06431652 -0.1187056)
(0.06554777 -0.06378768 -0.1187056)
(0.06629989 -0.06335725 -0.1187056)
(0.06710359 -0.06303323 -0.1187056)
(0.06794395 -0.06282168 -0.1187056)
(0.06880528 -0.06272652 -0.1187056)
(0.06967154 -0.06274953 -0.1187056)
(0.0705266 -0.06289028 -0.1187056)
(0.07135453 -0.06314616 -0.1187056)
(0.07213991 -0.06351239 -0.1187056)
(0.07286811 -0.06398215 -0.1187056)
(0.07352556 -0.06454669 -0.1187056)
(0.07410001 -0.06519549 -0.1187056)
(0.07458077 -0.06591648 -0.1187056)
(0.07495887 -0.0666962 -0.1187056)
(0.07522728 -0.06752016 -0.1187056)
(0.075381 -0.06837299 -0.1187056)
(0.07541715 -0.0692388 -0.1187056)
(0.06083176 -0.09773281 -0.1187056)
(0.05551283 -0.1060124 -0.1187056)
(-0.1130832 -0.2156189 -0.1187056)
(-0.1228089 -0.21712 -0.1187056)
(-0.1034225 -0.2137447 -0.1187056)
(-0.09384101 -0.2115002 -0.1187056)
(-0.06571328 -0.2025809 -0.1187056)
(-0.01346023 -0.175361 -0.1187056)
(-0.02171081 -0.1807248 -0.1187056)
(0.002391611 -0.1637014 -0.1187056)
(-0.00542212 -0.1696838 -0.1187056)
(0.009969394 -0.1574229 -0.1187056)
(0.01730001 -0.1508575 -0.1187056)
(0.02437259 -0.1440149 -0.1187056)
(0.03117668 -0.1369053 -0.1187056)
(0.0377022 -0.1295391 -0.1187056)
(0.04393948 -0.1219273 -0.1187056)
(0.04987929 -0.1140812 -0.1187056)
(-0.1887612 -0.2046194 -0.1089376)
(-0.1719055 -0.2189711 -0.1089376)
(-0.1719055 -0.2189711 -0.0991696)
(-0.1719055 -0.2189711 -0.0894016)
(-0.1887612 -0.2046194 -0.0796336)
(-0.1887612 -0.2046194 -0.0894016)
(-0.1719055 -0.2189711 -0.0796336)
(-0.1887612 -0.2046194 -0.0698656)
(-0.1719055 -0.2189711 -0.0698656)
(-0.1887612 -0.2046194 -0.0600976)
(-0.1887612 -0.2046194 -0.0503296)
(-0.1719055 -0.2189711 -0.0307936)
(-0.1719055 -0.2189711 -0.0210256)
(-0.1719055 -0.2189711 -0.0600976)
(-0.1719055 -0.2189711 -0.0503296)
(-0.1719055 -0.2189711 -0.0405616)
(-0.1887612 -0.2046194 0.0082784)
(-0.1887612 -0.2046194 -0.0014896)
(-0.1719055 -0.2189711 -0.0112576)
(-0.1719055 -0.2189711 -0.0014896)
(-0.1887612 -0.2046194 -0.0405616)
(-0.1719055 -0.2189711 0.0082784)
(-0.1776503 -0.2143368 0.0180464)
(-0.1832702 -0.2095517 0.0180464)
(-0.1887612 -0.2046194 -0.0112576)
(-0.1887612 -0.2046194 -0.0210256)
(-0.1887612 -0.2046194 -0.0307936)
(-0.1887612 -0.2046194 -0.0991696)
(0.05893973 -0.07529225 0.0180464)
(0.06331586 -0.0663869 0.0180464)
(-0.1788996 -0.2057172 0.0180464)
(-0.1690014 -0.2064115 0.0180464)
(-0.1590832 -0.2067012 0.0180464)
(-0.1491614 -0.2065858 0.0180464)
(-0.1392525 -0.2060655 0.0180464)
(-0.1293732 -0.2051411 0.0180464)
(-0.1195398 -0.2038143 0.0180464)
(-0.1097688 -0.2020872 0.0180464)
(-0.1000764 -0.1999627 0.0180464)
(-0.09047885 -0.1974443 0.0180464)
(-0.08099207 -0.1945363 0.0180464)
(-0.0716319 -0.1912434 0.0180464)
(-0.06241394 -0.1875712 0.0180464)
(-0.05335356 -0.1835258 0.0180464)
(-0.04446586 -0.179114 0.0180464)
(-0.03576565 -0.174343 0.0180464)
(-0.02726744 -0.1692209 0.0180464)
(-0.0189854 -0.1637561 0.0180464)
(-0.01093332 -0.1579579 0.0180464)
(-0.003124628 -0.1518358 0.0180464)
(0.004427656 -0.1454 0.0180464)
(0.01171094 -0.1386614 0.0180464)
(0.0187131 -0.1316311 0.0180464)
(0.02542244 -0.1243208 0.0180464)
(0.0318278 -0.1167427 0.0180464)
(0.03791849 -0.1089095 0.0180464)
(0.04368436 -0.1008342 0.0180464)
(0.0491158 -0.09253026 0.0180464)
(0.05420375 -0.08401155 0.0180464)
(0.05551283 -0.1060124 0.0180464)
(0.06083176 -0.09773281 0.0180464)
(0.03117668 -0.1369053 0.0180464)
(0.0377022 -0.1295391 0.0180464)
(0.002391611 -0.1637014 0.0180464)
(0.009969394 -0.1574229 0.0180464)
(-0.04761378 -0.1948585 0.0180464)
(-0.03880025 -0.1904808 0.0180464)
(-0.05658923 -0.1988938 0.0180464)
(-0.00542212 -0.1696838 0.0180464)
(0.01730001 -0.1508575 0.0180464)
(0.02437259 -0.1440149 0.0180464)
(0.04393948 -0.1219273 0.0180464)
(0.0658282 -0.08925471 0.0180464)
(0.07049476 -0.08059066 0.0180464)
(0.07482452 -0.07175348 0.0180464)
(0.0751363 -0.07094494 0.0180464)
(0.07533508 -0.07010148 0.0180464)
(0.07541715 -0.0692388 0.0180464)
(0.075381 -0.06837299 0.0180464)
(0.07522728 -0.06752016 0.0180464)
(0.07495887 -0.0666962 0.0180464)
(0.07458077 -0.06591648 0.0180464)
(0.07410001 -0.06519549 0.0180464)
(0.07352556 -0.06454669 0.0180464)
(0.07286811 -0.06398215 0.0180464)
(0.07213991 -0.06351239 0.0180464)
(0.07135453 -0.06314616 0.0180464)
(0.0705266 -0.06289028 0.0180464)
(0.06967154 -0.06274953 0.0180464)
(0.06880528 -0.06272652 0.0180464)
(0.06794395 -0.06282168 0.0180464)
(0.06710359 -0.06303323 0.0180464)
(0.06629989 -0.06335725 0.0180464)
(0.06554777 -0.06378768 0.0180464)
(0.06486128 -0.06431652 0.0180464)
(0.06425319 -0.0649339 0.0180464)
(0.06373483 -0.06562835 0.0180464)
(-0.1522314 -0.2193654 0.0180464)
(-0.1423975 -0.2189947 0.0180464)
(-0.1620723 -0.2193576 0.0180464)
(-0.1034225 -0.2137447 0.0180464)
(-0.09384101 -0.2115002 0.0180464)
(-0.07497243 -0.2059141 0.0180464)
(-0.06571328 -0.2025809 0.0180464)
(-0.1228089 -0.21712 0.0180464)
(-0.1130832 -0.2156189 0.0180464)
(-0.1325852 -0.2182458 0.0180464)
(-0.08435297 -0.2088887 0.0180464)
(-0.03016166 -0.1857672 0.0180464)
(-0.02171081 -0.1807248 0.0180464)
(-0.01346023 -0.175361 0.0180464)
(0.04987929 -0.1140812 0.0180464)
(0.08870648 -0.2577902 -0.1187056)
(0.1138603 -0.241519 -0.1187056)
(0.1089331 -0.2500375 -0.1187056)
(0.1184562 -0.2328172 -0.1187056)
(0.1301898 -0.2057424 -0.1187056)
(0.126627 -0.2149156 -0.1187056)
(0.09425685 -0.2495653 -0.1187056)
(0.09946686 -0.2411207 -0.1187056)
(0.1043278 -0.2324704 -0.1187056)
(0.1088317 -0.223629 -0.1187056)
(0.1129708 -0.214611 -0.1187056)
(0.1167385 -0.2054317 -0.1187056)
(0.1201282 -0.1961062 -0.1187056)
(0.136244 -0.1870188 -0.1187056)
(0.1333971 -0.1964388 -0.1187056)
(0.1231345 -0.1866501 -0.1187056)
(0.1257524 -0.1770791 -0.1187056)
(0.1408407 -0.1678851 -0.1187056)
(0.1387265 -0.1774962 -0.1187056)
(0.1279773 -0.1674093 -0.1187056)
(0.1298057 -0.1576567 -0.1187056)
(0.1312345 -0.1478377 -0.1187056)
(0.1439525 -0.1484546 -0.1187056)
(0.1425835 -0.1581998 -0.1187056)
(0.1322612 -0.1379685 -0.1187056)
(0.1455611 -0.1288424 -0.1187056)
(0.1449455 -0.138664 -0.1187056)
(0.1328843 -0.1280656 -0.1187056)
(0.1457983 -0.1190044 -0.1187056)
(0.1456569 -0.1091645 -0.1187056)
(0.145137 -0.09933741 -0.1187056)
(0.1323243 -0.0983199 -0.1187056)
(0.1313289 -0.08844747 -0.1187056)
(0.1331026 -0.1181455 -0.1187056)
(0.1329159 -0.1082247 -0.1187056)
(0.1392964 -0.0604465 -0.1187056)
(0.1413169 -0.0700777 -0.1187056)
(0.1299313 -0.0786239 -0.1187056)
(0.1442394 -0.08953757 -0.1187056)
(0.128134 -0.06886556 -0.1187056)
(0.1259398 -0.05918872 -0.1187056)
(0.1369068 -0.05090016 -0.1187056)
(0.1233524 -0.04960952 -0.1187056)
(0.1203762 -0.0401439 -0.1187056)
(0.1237369 -0.01384388 -0.1187056)
(0.1275619 -0.02291096 -0.1187056)
(0.09985801 0.004936048 -0.1187056)
(0.09467487 0.01339718 -0.1187056)
(0.08915067 0.02163969 -0.1187056)
(0.09036345 0.03022176 -0.1187056)
(0.0910733 0.0307188 -0.1187056)
(0.117016 -0.03080767 -0.1187056)
(0.1132776 -0.02161637 -0.1187056)
(0.1091671 -0.01258533 -0.1187056)
(0.1046915 -0.003729605 -0.1187056)
(0.08870323 0.02238181 -0.1187056)
(0.08836101 0.02317794 -0.1187056)
(0.08813038 0.02401326 -0.1187056)
(0.08801564 0.0248722 -0.1187056)
(0.08801892 0.02573876 -0.1187056)
(0.08814018 0.0265968 -0.1187056)
(0.08837714 0.02743035 -0.1187056)
(0.0887254 0.02822386 -0.1187056)
(0.08917846 0.02896256 -0.1187056)
(0.08972789 0.02963269 -0.1187056)
(0.09184422 0.03111456 -0.1187056)
(0.09266185 0.03140165 -0.1187056)
(0.09351096 0.03157474 -0.1187056)
(0.09437572 0.0316306 -0.1187056)
(0.09524004 0.03156818 -0.1187056)
(0.09608781 0.03138866 -0.1187056)
(0.09690324 0.03109536 -0.1187056)
(0.09767114 0.03069377 -0.1187056)
(0.0983772 0.03019135 -0.1187056)
(0.09900827 0.02959747 -0.1187056)
(0.09955259 0.0289232 -0.1187056)
(0.1050409 0.02075492 -0.1187056)
(0.1102109 0.01238154 -0.1187056)
(0.115055 0.003815439 -0.1187056)
(0.1195659 -0.004930684 -0.1187056)
(0.1341518 -0.04145283 -0.1187056)
(0.1310352 -0.03211848 -0.1187056)
(0.1227138 -0.2239451 -0.1187056)
(0.1429654 -0.07977952 -0.1187056)
(0.082825 -0.2657817 -0.1089376)
(0.1036818 -0.2583601 -0.1089376)
(0.1036818 -0.2583601 -0.0991696)
(0.1036818 -0.2583601 -0.0894016)
(0.082825 -0.2657817 -0.0796336)
(0.082825 -0.2657817 -0.0894016)
(0.1036818 -0.2583601 -0.0796336)
(0.082825 -0.2657817 -0.0698656)
(0.1036818 -0.2583601 -0.0698656)
(0.082825 -0.2657817 -0.0600976)
(0.082825 -0.2657817 -0.0503296)
(0.1036818 -0.2583601 -0.0307936)
(0.1036818 -0.2583601 -0.0210256)
(0.1036818 -0.2583601 -0.0600976)
(0.1036818 -0.2583601 -0.0503296)
(0.1036818 -0.2583601 -0.0405616)
(0.082825 -0.2657817 0.0082784)
(0.082825 -0.2657817 -0.0014896)
(0.1036818 -0.2583601 -0.0112576)
(0.1036818 -0.2583601 -0.0014896)
(0.082825 -0.2657817 -0.0405616)
(0.1036818 -0.2583601 0.0082784)
(0.09679595 -0.261018 0.0180464)
(0.08984205 -0.2634925 0.0180464)
(0.082825 -0.2657817 -0.0112576)
(0.082825 -0.2657817 -0.0210256)
(0.082825 -0.2657817 -0.0307936)
(0.082825 -0.2657817 -0.0991696)
(0.09467487 0.01339718 0.0180464)
(0.08915067 0.02163969 0.0180464)
(0.08870648 -0.2577902 0.0180464)
(0.09425685 -0.2495653 0.0180464)
(0.09946686 -0.2411207 0.0180464)
(0.1043278 -0.2324704 0.0180464)
(0.1088317 -0.223629 0.0180464)
(0.1129708 -0.214611 0.0180464)
(0.1167385 -0.2054317 0.0180464)
(0.1201282 -0.1961062 0.0180464)
(0.1231345 -0.1866501 0.0180464)
(0.1257524 -0.1770791 0.0180464)
(0.1279773 -0.1674093 0.0180464)
(0.1298057 -0.1576567 0.0180464)
(0.1312345 -0.1478377 0.0180464)
(0.1322612 -0.1379685 0.0180464)
(0.1328843 -0.1280656 0.0180464)
(0.1331026 -0.1181455 0.0180464)
(0.1329159 -0.1082247 0.0180464)
(0.1323243 -0.0983199 0.0180464)
(0.1313289 -0.08844747 0.0180464)
(0.1299313 -0.0786239 0.0180464)
(0.128134 -0.06886556 0.0180464)
(0.1259398 -0.05918872 0.0180464)
(0.1233524 -0.04960952 0.0180464)
(0.1203762 -0.0401439 0.0180464)
(0.117016 -0.03080767 0.0180464)
(0.1132776 -0.02161637 0.0180464)
(0.1091671 -0.01258533 0.0180464)
(0.1046915 -0.003729605 0.0180464)
(0.09985801 0.004936048 0.0180464)
(0.1439525 -0.1484546 0.0180464)
(0.1449455 -0.138664 0.0180464)
(0.1408407 -0.1678851 0.0180464)
(0.1425835 -0.1581998 0.0180464)
(0.08837714 0.02743035 0.0180464)
(0.08814018 0.0265968 0.0180464)
(0.1102109 0.01238154 0.0180464)
(0.1050409 0.02075492 0.0180464)
(0.1275619 -0.02291096 0.0180464)
(0.1237369 -0.01384388 0.0180464)
(0.1341518 -0.04145283 0.0180464)
(0.1310352 -0.03211848 0.0180464)
(0.1429654 -0.07977952 0.0180464)
(0.1413169 -0.0700777 0.0180464)
(0.1457983 -0.1190044 0.0180464)
(0.1456569 -0.1091645 0.0180464)
(0.1455611 -0.1288424 0.0180464)
(0.1195659 -0.004930684 0.0180464)
(0.115055 0.003815439 0.0180464)
(0.09955259 0.0289232 0.0180464)
(0.09900827 0.02959747 0.0180464)
(0.0983772 0.03019135 0.0180464)
(0.09767114 0.03069377 0.0180464)
(0.09690324 0.03109536 0.0180464)
(0.09608781 0.03138866 0.0180464)
(0.09524004 0.03156818 0.0180464)
(0.09437572 0.0316306 0.0180464)
(0.09351096 0.03157474 0.0180464)
(0.09266185 0.03140165 0.0180464)
(0.09184422 0.03111456 0.0180464)
(0.0910733 0.0307188 0.0180464)
(0.09036345 0.03022176 0.0180464)
(0.08972789 0.02963269 0.0180464)
(0.08917846 0.02896256 0.0180464)
(0.0887254 0.02822386 0.0180464)
(0.08801892 0.02573876 0.0180464)
(0.08801564 0.0248722 0.0180464)
(0.08813038 0.02401326 0.0180464)
(0.08836101 0.02317794 0.0180464)
(0.08870323 0.02238181 0.0180464)
(0.1387265 -0.1774962 0.0180464)
(0.1184562 -0.2328172 0.0180464)
(0.1227138 -0.2239451 0.0180464)
(0.1138603 -0.241519 0.0180464)
(0.1089331 -0.2500375 0.0180464)
(0.126627 -0.2149156 0.0180464)
(0.1333971 -0.1964388 0.0180464)
(0.136244 -0.1870188 0.0180464)
(0.1301898 -0.2057424 0.0180464)
(0.145137 -0.09933741 0.0180464)
(0.1442394 -0.08953757 0.0180464)
(0.1392964 -0.0604465 0.0180464)
(0.1369068 -0.05090016 0.0180464)
(0.2710054 -0.0306799 0.0180464)
(0.2755874 -0.03938899 0.0082784)
(0.2755874 -0.03938899 -0.0014896)
(0.2755874 -0.03938899 -0.0112576)
(0.2755874 -0.03938899 -0.0210256)
(0.09333304 0.09742061 -0.1187056)
(0.08362243 0.09901637 -0.1187056)
(0.2755874 -0.03938899 -0.0307936)
(0.2755874 -0.03938899 -0.0405616)
(0.2755874 -0.03938899 -0.0503296)
(0.2755874 -0.03938899 -0.0600976)
(0.2755874 -0.03938899 -0.0698656)
(0.2755874 -0.03938899 -0.0796336)
(0.2755874 -0.03938899 -0.0894016)
(0.2755874 -0.03938899 -0.0991696)
(0.2755874 -0.03938899 -0.1089376)
(0.2710054 -0.0306799 -0.1187056)
(0.2660917 -0.02215354 -0.1187056)
(0.2608537 -0.01382255 -0.1187056)
(0.255299 -0.005699247 -0.1187056)
(0.2494359 0.002204328 -0.1187056)
(0.243273 0.009876475 -0.1187056)
(0.2368196 0.01730583 -0.1187056)
(0.230085 0.0244814 -0.1187056)
(0.2230794 0.03139254 -0.1187056)
(0.2158131 0.03802904 -0.1187056)
(0.2082968 0.04438106 -0.1187056)
(0.2005417 0.0504392 -0.1187056)
(0.1925593 0.05619448 -0.1187056)
(0.1843613 0.06163839 -0.1187056)
(0.17596 0.06676286 -0.1187056)
(0.1673677 0.0715603 -0.1187056)
(0.1585972 0.07602361 -0.1187056)
(0.1496615 0.08014618 -0.1187056)
(0.1405738 0.08392191 -0.1187056)
(0.1313475 0.0873452 -0.1187056)
(0.1219964 0.09041099 -0.1187056)
(0.1125343 0.09311473 -0.1187056)
(0.1029751 0.09545242 -0.1187056)
(0.0738576 0.1002373 -0.1187056)
(0.06405302 0.1010817 -0.1187056)
(0.05422322 0.1015483 -0.1187056)
(0.04438275 0.1016363 -0.1187056)
(0.03454618 0.1013456 -0.1187056)
(0.02472807 0.1006767 -0.1187056)
(0.02472807 0.1006767 0.0180464)
(0.03454618 0.1013456 0.0180464)
(0.04438275 0.1016363 0.0180464)
(0.05422322 0.1015483 0.0180464)
(0.06405302 0.1010817 0.0180464)
(0.0738576 0.1002373 0.0180464)
(0.08362243 0.09901637 0.0180464)
(0.09333304 0.09742061 0.0180464)
(0.1029751 0.09545242 0.0180464)
(0.1125343 0.09311473 0.0180464)
(0.1219964 0.09041099 0.0180464)
(0.1313475 0.0873452 0.0180464)
(0.1405738 0.08392191 0.0180464)
(0.1496615 0.08014618 0.0180464)
(0.1585972 0.07602361 0.0180464)
(0.1673677 0.0715603 0.0180464)
(0.17596 0.06676286 0.0180464)
(0.1843613 0.06163839 0.0180464)
(0.1925593 0.05619448 0.0180464)
(0.2005417 0.0504392 0.0180464)
(0.2082968 0.04438106 0.0180464)
(0.2158131 0.03802904 0.0180464)
(0.2230794 0.03139254 0.0180464)
(0.230085 0.0244814 0.0180464)
(0.2368196 0.01730583 0.0180464)
(0.243273 0.009876475 0.0180464)
(0.2494359 0.002204328 0.0180464)
(0.255299 -0.005699247 0.0180464)
(0.2608537 -0.01382255 0.0180464)
(0.2660917 -0.02215354 0.0180464)
(0.01941095 0.09677023 0.0180464)
(0.01979496 0.09754708 0.0180464)
(0.02028117 0.09826439 0.0180464)
(0.02086053 0.09890881 0.0180464)
(0.02387197 0.1005424 -0.1187056)
(0.02304212 0.1002928 -0.1187056)
(0.02225398 0.09993257 -0.1187056)
(0.02152225 0.09946835 -0.1187056)
(0.02086053 0.09890881 -0.1187056)
(0.02028117 0.09826439 -0.1187056)
(0.01979496 0.09754708 -0.1187056)
(0.01941095 0.09677023 -0.1187056)
(0.01913629 0.09594835 -0.1187056)
(0.01897611 0.09509671 -0.1187056)
(0.01893339 0.09423119 -0.1187056)
(0.01900891 0.09336792 -0.1187056)
(0.01920129 0.09252297 -0.1187056)
(0.01950692 0.09171209 -0.1187056)
(0.01992012 0.09095038 -0.1187056)
(0.02043319 0.09025202 -0.1187056)
(0.02103658 0.08963004 -0.1187056)
(0.02171904 0.089096 -0.1187056)
(0.02246786 0.08865988 -0.1187056)
(0.0232691 0.08832978 -0.1187056)
(0.02410782 0.08811185 -0.1187056)
(0.0249684 0.08801015 -0.1187056)
(0.02583481 0.0880266 -0.1187056)
(0.02583481 0.0880266 0.0180464)
(0.0249684 0.08801015 0.0180464)
(0.02410782 0.08811185 0.0180464)
(0.0232691 0.08832978 0.0180464)
(0.02246786 0.08865988 0.0180464)
(0.02171904 0.089096 0.0180464)
(0.02103658 0.08963004 0.0180464)
(0.02043319 0.09025202 0.0180464)
(0.01992012 0.09095038 0.0180464)
(0.01950692 0.09171209 0.0180464)
(0.01920129 0.09252297 0.0180464)
(0.01900891 0.09336792 0.0180464)
(0.01893339 0.09423119 0.0180464)
(0.01897611 0.09509671 0.0180464)
(0.01913629 0.09594835 0.0180464)
(0.02152225 0.09946835 0.0180464)
(0.02225398 0.09993257 0.0180464)
(0.02304212 0.1002928 0.0180464)
(0.02387197 0.1005424 0.0180464)
(0.242344 -0.009469911 0.0180464)
(0.2480842 -0.0175635 0.0180464)
(0.2676061 -0.05207303 0.0180464)
(0.2731122 -0.05394074 0.0180464)
(0.2014376 0.03358666 0.0180464)
(0.2089694 0.02712694 0.0180464)
(0.04565426 0.08894759 0.0180464)
(0.05557566 0.08880065 0.0180464)
(0.1142288 0.07947268 0.0180464)
(0.1237063 0.07653449 0.0180464)
(0.1513097 0.06543624 0.0180464)
(0.1601833 0.06099615 0.0180464)
(0.1773502 0.05104842 0.0180464)
(0.1856148 0.04555738 0.0180464)
(0.03573513 0.08868943 0.0180464)
(0.06548279 0.08824886 0.0180464)
(0.07535914 0.08729312 0.0180464)
(0.08518825 0.08593503 0.0180464)
(0.09495372 0.08417687 0.0180464)
(0.1046393 0.08202155 0.0180464)
(0.133056 0.07321189 0.0180464)
(0.1422622 0.06951042 0.0180464)
(0.1688683 0.05619754 0.0180464)
(0.1936484 0.03973355 0.0180464)
(0.2162312 0.02036517 0.0180464)
(0.223211 0.01331261 0.0180464)
(0.2298971 0.005981022 0.0180464)
(0.2362783 -0.001617373 0.0180464)
(0.2534892 -0.02588466 0.0180464)
(0.25855 -0.0344195 0.0180464)
(0.2632583 -0.04315381 0.0180464)
(0.2744462 -0.04668127 0.0180464)
(0.2715862 -0.06116228 -0.0210256)
(0.2715862 -0.06116228 -0.0112576)
(0.2715862 -0.06116228 -0.0307936)
(0.2715862 -0.06116228 -0.0405616)
(0.2715862 -0.06116228 -0.0503296)
(0.2298971 0.005981022 -0.1187056)
(0.2362783 -0.001617373 -0.1187056)
(0.223211 0.01331261 -0.1187056)
(0.03573513 0.08868943 -0.1187056)
(0.04565426 0.08894759 -0.1187056)
(0.05557566 0.08880065 -0.1187056)
(0.06548279 0.08824886 -0.1187056)
(0.07535914 0.08729312 -0.1187056)
(0.08518825 0.08593503 -0.1187056)
(0.09495372 0.08417687 -0.1187056)
(0.1046393 0.08202155 -0.1187056)
(0.1142288 0.07947268 -0.1187056)
(0.1237063 0.07653449 -0.1187056)
(0.133056 0.07321189 -0.1187056)
(0.1422622 0.06951042 -0.1187056)
(0.1513097 0.06543624 -0.1187056)
(0.1601833 0.06099615 -0.1187056)
(0.1688683 0.05619754 -0.1187056)
(0.1773502 0.05104842 -0.1187056)
(0.1856148 0.04555738 -0.1187056)
(0.1936484 0.03973355 -0.1187056)
(0.2014376 0.03358666 -0.1187056)
(0.2089694 0.02712694 -0.1187056)
(0.2162312 0.02036517 -0.1187056)
(0.242344 -0.009469911 -0.1187056)
(0.2715862 -0.06116228 -0.0600976)
(0.2480842 -0.0175635 -0.1187056)
(0.2715862 -0.06116228 -0.0698656)
(0.2534892 -0.02588466 -0.1187056)
(0.25855 -0.0344195 -0.1187056)
(0.2632583 -0.04315381 -0.1187056)
(0.2715862 -0.06116228 -0.0991696)
(0.2715862 -0.06116228 -0.0894016)
(0.2715862 -0.06116228 -0.0796336)
(0.2676061 -0.05207303 -0.1187056)
(0.2715862 -0.06116228 -0.1089376)
(0.2715862 -0.06116228 -0.0014896)
(0.2715862 -0.06116228 0.0082784)
(0.2731122 -0.05394074 -0.1187056)
(0.2744462 -0.04668127 -0.1187056)
(0.1719055 0.2189711 0.0082784)
(0.1719055 0.2189711 -0.0014896)
(0.1620723 0.2193576 0.0180464)
(0.1522314 0.2193654 0.0180464)
(0.1719055 0.2189711 -0.0112576)
(0.1719055 0.2189711 -0.0210256)
(-0.03117668 0.1369053 -0.1187056)
(-0.0377022 0.1295391 -0.1187056)
(0.1719055 0.2189711 -0.0307936)
(0.1719055 0.2189711 -0.0405616)
(0.1719055 0.2189711 -0.0503296)
(0.1719055 0.2189711 -0.0600976)
(0.1719055 0.2189711 -0.0698656)
(0.1719055 0.2189711 -0.0796336)
(0.1719055 0.2189711 -0.0894016)
(0.1719055 0.2189711 -0.0991696)
(0.1719055 0.2189711 -0.1089376)
(0.1620723 0.2193576 -0.1187056)
(0.1522314 0.2193654 -0.1187056)
(0.1423975 0.2189947 -0.1187056)
(0.1325852 0.2182458 -0.1187056)
(0.1228089 0.21712 -0.1187056)
(0.1130832 0.2156189 -0.1187056)
(0.1034225 0.2137447 -0.1187056)
(0.09384101 0.2115002 -0.1187056)
(0.08435297 0.2088887 -0.1187056)
(0.07497243 0.2059141 -0.1187056)
(0.06571328 0.2025809 -0.1187056)
(0.05658923 0.1988938 -0.1187056)
(0.04761378 0.1948585 -0.1187056)
(0.03880025 0.1904808 -0.1187056)
(0.03016166 0.1857672 -0.1187056)
(0.02171081 0.1807248 -0.1187056)
(0.01346023 0.175361 -0.1187056)
(0.00542212 0.1696838 -0.1187056)
(-0.002391611 0.1637014 -0.1187056)
(-0.009969394 0.1574229 -0.1187056)
(-0.01730001 0.1508575 -0.1187056)
(-0.02437259 0.1440149 -0.1187056)
(-0.04393948 0.1219273 -0.1187056)
(-0.04987929 0.1140812 -0.1187056)
(-0.05551283 0.1060124 -0.1187056)
(-0.06083176 0.09773281 -0.1187056)
(-0.0658282 0.08925471 -0.1187056)
(-0.07049476 0.08059066 -0.1187056)
(-0.07482452 0.07175348 -0.1187056)
(-0.07482452 0.07175348 0.0180464)
(-0.07049476 0.08059066 0.0180464)
(-0.0658282 0.08925471 0.0180464)
(-0.06083176 0.09773281 0.0180464)
(-0.05551283 0.1060124 0.0180464)
(-0.04987929 0.1140812 0.0180464)
(-0.04393948 0.1219273 0.0180464)
(-0.0377022 0.1295391 0.0180464)
(-0.03117668 0.1369053 0.0180464)
(-0.02437259 0.1440149 0.0180464)
(-0.01730001 0.1508575 0.0180464)
(-0.009969394 0.1574229 0.0180464)
(-0.002391611 0.1637014 0.0180464)
(0.00542212 0.1696838 0.0180464)
(0.01346023 0.175361 0.0180464)
(0.02171081 0.1807248 0.0180464)
(0.03016166 0.1857672 0.0180464)
(0.03880025 0.1904808 0.0180464)
(0.04761378 0.1948585 0.0180464)
(0.05658923 0.1988938 0.0180464)
(0.06571328 0.2025809 0.0180464)
(0.07497243 0.2059141 0.0180464)
(0.08435297 0.2088887 0.0180464)
(0.09384101 0.2115002 0.0180464)
(0.1034225 0.2137447 0.0180464)
(0.1130832 0.2156189 0.0180464)
(0.1228089 0.21712 0.0180464)
(0.1325852 0.2182458 0.0180464)
(0.1423975 0.2189947 0.0180464)
(-0.07410001 0.06519549 0.0180464)
(-0.07458077 0.06591648 0.0180464)
(-0.07495887 0.0666962 0.0180464)
(-0.07522728 0.06752016 0.0180464)
(-0.0751363 0.07094494 -0.1187056)
(-0.07533508 0.07010148 -0.1187056)
(-0.07541715 0.0692388 -0.1187056)
(-0.075381 0.06837299 -0.1187056)
(-0.07522728 0.06752016 -0.1187056)
(-0.07495887 0.0666962 -0.1187056)
(-0.07458077 0.06591648 -0.1187056)
(-0.07410001 0.06519549 -0.1187056)
(-0.07352556 0.06454669 -0.1187056)
(-0.07286811 0.06398215 -0.1187056)
(-0.07213991 0.06351239 -0.1187056)
(-0.07135453 0.06314616 -0.1187056)
(-0.0705266 0.06289028 -0.1187056)
(-0.06967154 0.06274953 -0.1187056)
(-0.06880528 0.06272652 -0.1187056)
(-0.06794395 0.06282168 -0.1187056)
(-0.06710359 0.06303323 -0.1187056)
(-0.06629989 0.06335725 -0.1187056)
(-0.06554777 0.06378768 -0.1187056)
(-0.06486128 0.06431652 -0.1187056)
(-0.06425319 0.0649339 -0.1187056)
(-0.06373483 0.06562835 -0.1187056)
(-0.06331586 0.0663869 -0.1187056)
(-0.06331586 0.0663869 0.0180464)
(-0.06373483 0.06562835 0.0180464)
(-0.06425319 0.0649339 0.0180464)
(-0.06486128 0.06431652 0.0180464)
(-0.06554777 0.06378768 0.0180464)
(-0.06629989 0.06335725 0.0180464)
(-0.06710359 0.06303323 0.0180464)
(-0.06794395 0.06282168 0.0180464)
(-0.06880528 0.06272652 0.0180464)
(-0.06967154 0.06274953 0.0180464)
(-0.0705266 0.06289028 0.0180464)
(-0.07135453 0.06314616 0.0180464)
(-0.07213991 0.06351239 0.0180464)
(-0.07286811 0.06398215 0.0180464)
(-0.07352556 0.06454669 0.0180464)
(-0.075381 0.06837299 0.0180464)
(-0.07541715 0.0692388 0.0180464)
(-0.07533508 0.07010148 0.0180464)
(-0.0751363 0.07094494 0.0180464)
(-0.0187131 0.1316311 0.0180464)
(-0.01171094 0.1386614 0.0180464)
(0.01093332 0.1579579 0.0180464)
(0.0189854 0.1637561 0.0180464)
(0.06241394 0.1875712 0.0180464)
(0.0716319 0.1912434 0.0180464)
(-0.05893973 0.07529225 0.0180464)
(-0.05420375 0.08401155 0.0180464)
(-0.0491158 0.09253026 0.0180464)
(-0.04368436 0.1008342 0.0180464)
(-0.03791849 0.1089095 0.0180464)
(-0.0318278 0.1167427 0.0180464)
(-0.02542244 0.1243208 0.0180464)
(-0.004427656 0.1454 0.0180464)
(0.003124628 0.1518358 0.0180464)
(0.02726744 0.1692209 0.0180464)
(0.03576565 0.174343 0.0180464)
(0.04446586 0.179114 0.0180464)
(0.05335356 0.1835258 0.0180464)
(0.08099207 0.1945363 0.0180464)
(0.09047885 0.1974443 0.0180464)
(0.1000764 0.1999627 0.0180464)
(0.1097688 0.2020872 0.0180464)
(0.1195398 0.2038143 0.0180464)
(0.1293732 0.2051411 0.0180464)
(0.1392525 0.2060655 0.0180464)
(0.1491614 0.2065858 0.0180464)
(0.1590832 0.2067012 0.0180464)
(0.1776503 0.2143368 0.0180464)
(0.1832702 0.2095517 0.0180464)
(0.1788996 0.2057172 0.0180464)
(0.1690014 0.2064115 0.0180464)
(0.1887612 0.2046194 -0.0210256)
(0.1887612 0.2046194 -0.0112576)
(0.1887612 0.2046194 -0.0307936)
(0.1887612 0.2046194 -0.0405616)
(0.1887612 0.2046194 -0.0503296)
(0.1195398 0.2038143 -0.1187056)
(0.1293732 0.2051411 -0.1187056)
(-0.05893973 0.07529225 -0.1187056)
(-0.05420375 0.08401155 -0.1187056)
(-0.0491158 0.09253026 -0.1187056)
(-0.04368436 0.1008342 -0.1187056)
(-0.03791849 0.1089095 -0.1187056)
(-0.0318278 0.1167427 -0.1187056)
(-0.02542244 0.1243208 -0.1187056)
(-0.0187131 0.1316311 -0.1187056)
(-0.01171094 0.1386614 -0.1187056)
(-0.004427656 0.1454 -0.1187056)
(0.003124628 0.1518358 -0.1187056)
(0.01093332 0.1579579 -0.1187056)
(0.0189854 0.1637561 -0.1187056)
(0.02726744 0.1692209 -0.1187056)
(0.03576565 0.174343 -0.1187056)
(0.04446586 0.179114 -0.1187056)
(0.05335356 0.1835258 -0.1187056)
(0.06241394 0.1875712 -0.1187056)
(0.0716319 0.1912434 -0.1187056)
(0.08099207 0.1945363 -0.1187056)
(0.09047885 0.1974443 -0.1187056)
(0.1000764 0.1999627 -0.1187056)
(0.1097688 0.2020872 -0.1187056)
(0.1392525 0.2060655 -0.1187056)
(0.1887612 0.2046194 -0.0600976)
(0.1491614 0.2065858 -0.1187056)
(0.1887612 0.2046194 -0.0698656)
(0.1590832 0.2067012 -0.1187056)
(0.1690014 0.2064115 -0.1187056)
(0.1887612 0.2046194 -0.0991696)
(0.1887612 0.2046194 -0.0894016)
(0.1788996 0.2057172 -0.1187056)
(0.1887612 0.2046194 -0.1089376)
(0.1887612 0.2046194 -0.0796336)
(0.1887612 0.2046194 -0.0014896)
(0.1887612 0.2046194 0.0082784)
(0.1832702 0.2095517 -0.1187056)
(0.1776503 0.2143368 -0.1187056)
(-0.2676061 0.05207303 -0.1187056)
(-0.2710054 0.0306799 -0.1187056)
(-0.2660917 0.02215354 -0.1187056)
(-0.2534892 0.02588466 -0.1187056)
(-0.2480842 0.0175635 -0.1187056)
(-0.2632583 0.04315381 -0.1187056)
(-0.25855 0.0344195 -0.1187056)
(-0.2089694 -0.02712694 -0.1187056)
(-0.2014376 -0.03358666 -0.1187056)
(-0.2158131 -0.03802904 -0.1187056)
(-0.2230794 -0.03139254 -0.1187056)
(-0.2298971 -0.005981022 -0.1187056)
(-0.223211 -0.01331261 -0.1187056)
(-0.242344 0.009469911 -0.1187056)
(-0.2608537 0.01382255 -0.1187056)
(-0.2362783 0.001617373 -0.1187056)
(-0.2162312 -0.02036517 -0.1187056)
(-0.1936484 -0.03973355 -0.1187056)
(-0.1925593 -0.05619448 -0.1187056)
(-0.2005417 -0.0504392 -0.1187056)
(-0.1843613 -0.06163839 -0.1187056)
(-0.17596 -0.06676286 -0.1187056)
(-0.1601833 -0.06099615 -0.1187056)
(-0.1513097 -0.06543624 -0.1187056)
(-0.1422622 -0.06951042 -0.1187056)
(-0.1313475 -0.0873452 -0.1187056)
(-0.1405738 -0.08392191 -0.1187056)
(-0.1856148 -0.04555738 -0.1187056)
(-0.1773502 -0.05104842 -0.1187056)
(-0.1688683 -0.05619754 -0.1187056)
(-0.133056 -0.07321189 -0.1187056)
(-0.1219964 -0.09041099 -0.1187056)
(-0.1125343 -0.09311473 -0.1187056)
(-0.1029751 -0.09545242 -0.1187056)
(-0.06405302 -0.1010817 -0.1187056)
(-0.0738576 -0.1002373 -0.1187056)
(-0.1237063 -0.07653449 -0.1187056)
(-0.1142288 -0.07947268 -0.1187056)
(-0.1046393 -0.08202155 -0.1187056)
(-0.09495372 -0.08417687 -0.1187056)
(-0.08518825 -0.08593503 -0.1187056)