/*--------------------------------*- C++ -*----------------------------------*\
| =========                 |                                                 |
| \\      /  F ield         | OpenFOAM: The Open Source CFD Toolbox           |
|  \\    /   O peration     | Version:  v2006                                 |
|   \\  /    A nd           | Website:  www.openfoam.com                      |
|    \\/     M anipulation  |                                                 |
\*---------------------------------------------------------------------------*/
FoamFile
{
    version     2.0;
    format      ascii;
    class       featureEdgeMesh;
    location    "constant/triSurface";
    object      body.eMesh;
}
// * * * * * * * * * * * * * * * * * * * * * * * * * * * * * * * * * * * * * //


// points:

172
(
(0.2991997 0.02189859 2)
(0.3 -7.347881e-17 2)
(0.2991997 0.02189859 -2)
(0.296803 0.04368035 -2)
(0.296803 0.04368035 2)
(0.2928227 0.06522905 -2)
(0.2928227 0.06522905 2)
(0.2872802 0.08642973 -2)
(0.2872802 0.08642973 2)
(0.2802048 0.1071693 -2)
(0.2802048 0.1071693 2)
(0.2716345 0.127337 -2)
(0.2716345 0.127337 2)
(0.2616148 0.1468254 -2)
(0.2616148 0.1468254 2)
(0.2501993 0.1655303 -2)
(0.2501993 0.1655303 2)
(0.2374489 0.1833521 -2)
(0.2374489 0.1833521 2)
(0.2234317 0.2001956 -2)
(0.2234317 0.2001956 2)
(0.2082223 0.215971 -2)
(0.2082223 0.215971 2)
(0.1919019 0.2305941 -2)
(0.1919019 0.2305941 2)
(0.1745577 0.2439869 -2)
(0.1745577 0.2439869 2)
(0.1562821 0.2560779 -2)
(0.1562821 0.2560779 2)
(0.1371727 0.2668026 -2)
(0.1371727 0.2668026 2)
(0.1173314 0.2761039 -2)
(0.1173314 0.2761039 2)
(0.09686412 0.2839319 -2)
(0.09686412 0.2839319 2)
(0.07588001 0.2902451 -2)
(0.07588001 0.2902451 2)
(0.05449105 0.2950097 -2)
(0.05449105 0.2950097 2)
(0.03281136 0.2982003 -2)
(0.03281136 0.2982003 2)
(0.01095661 0.2997999 -2)
(0.01095661 0.2997999 2)
(-0.01095661 0.2997999 -2)
(-0.01095661 0.2997999 2)
(-0.03281136 0.2982003 -2)
(-0.03281136 0.2982003 2)
(-0.05449105 0.2950097 -2)
(-0.05449105 0.2950097 2)
(-0.07588001 0.2902451 -2)
(-0.07588001 0.2902451 2)
(-0.09686412 0.2839319 -2)
(-0.09686412 0.2839319 2)
(-0.1173314 0.2761039 -2)
(-0.1173314 0.2761039 2)
(-0.1371727 0.2668026 -2)
(-0.1371727 0.2668026 2)
(-0.1562821 0.2560779 -2)
(-0.1562821 0.2560779 2)
(-0.1745577 0.2439869 -2)
(-0.1745577 0.2439869 2)
(-0.1919019 0.2305941 -2)
(-0.1919019 0.2305941 2)
(-0.2082223 0.215971 -2)
(-0.2082223 0.215971 2)
(-0.2234317 0.2001956 -2)
(-0.2234317 0.2001956 2)
(-0.2374489 0.1833521 -2)
(-0.2374489 0.1833521 2)
(-0.2501993 0.1655303 -2)
(-0.2501993 0.1655303 2)
(-0.2616148 0.1468254 -2)
(-0.2616148 0.1468254 2)
(-0.2716345 0.127337 -2)
(-0.2716345 0.127337 2)
(-0.2802048 0.1071693 -2)
(-0.2802048 0.1071693 2)
(-0.2872802 0.08642973 -2)
(-0.2872802 0.08642973 2)
(-0.2928227 0.06522905 -2)
(-0.2928227 0.06522905 2)
(-0.296803 0.04368035 -2)
(-0.296803 0.04368035 2)
(-0.2991997 0.02189859 -2)
(-0.2991997 0.02189859 2)
(-0.3 3.673941e-17 -2)
(-0.3 3.673941e-17 2)
(-0.2991997 -0.02189859 -2)
(-0.2991997 -0.02189859 2)
(-0.296803 -0.04368035 -2)
(-0.296803 -0.04368035 2)
(-0.2928227 -0.06522905 -2)
(-0.2928227 -0.06522905 2)
(-0.2872802 -0.08642973 -2)
(-0.2872802 -0.08642973 2)
(-0.2802048 -0.1071693 -2)
(-0.2802048 -0.1071693 2)
(-0.2716345 -0.127337 -2)
(-0.2716345 -0.127337 2)
(-0.2616148 -0.1468254 -2)
(-0.2616148 -0.1468254 2)
(-0.2501993 -0.1655303 -2)
(-0.2501993 -0.1655303 2)
(-0.2374489 -0.1833521 -2)
(-0.2374489 -0.1833521 2)
(-0.2234317 -0.2001956 -2)
(-0.2234317 -0.2001956 2)
(-0.2082223 -0.215971 -2)
(-0.2082223 -0.215971 2)
(-0.1919019 -0.2305941 -2)
(-0.1919019 -0.2305941 2)
(-0.1745577 -0.2439869 -2)
(-0.1745577 -0.2439869 2)
(-0.1562821 -0.2560779 -2)
(-0.1562821 -0.2560779 2)
(-0.1371727 -0.2668026 -2)
(-0.1371727 -0.2668026 2)
(-0.1173314 -0.2761039 -2)
(-0.1173314 -0.2761039 2)
(-0.09686412 -0.2839319 -2)
(-0.09686412 -0.2839319 2)
(-0.07588001 -0.2902451 -2)
(-0.07588001 -0.2902451 2)
(-0.05449105 -0.2950097 -2)
(-0.05449105 -0.2950097 2)
(-0.03281136 -0.2982003 -2)
(-0.03281136 -0.2982003 2)
(-0.01095661 -0.2997999 -2)
(-0.01095661 -0.2997999 2)
(0.01095661 -0.2997999 -2)
(0.01095661 -0.2997999 2)
(0.03281136 -0.2982003 -2)
(0.03281136 -0.2982003 2)
(0.05449105 -0.2950097 -2)
(0.05449105 -0.2950097 2)
(0.07588001 -0.2902451 -2)
(0.07588001 -0.2902451 2)
(0.09686412 -0.2839319 -2)
(0.09686412 -0.2839319 2)
(0.1173314 -0.2761039 -2)
(0.1173314 -0.2761039 2)
(0.1371727 -0.2668026 -2)
(0.1371727 -0.2668026 2)
(0.1562821 -0.2560779 -2)
(0.1562821 -0.2560779 2)
(0.1745577 -0.2439869 -2)
(0.1745577 -0.2439869 2)
(0.1919019 -0.2305941 -2)
(0.1919019 -0.2305941 2)
(0.2082223 -0.215971 -2)
(0.2082223 -0.215971 2)
(0.2234317 -0.2001956 -2)
(0.2234317 -0.2001956 2)
(0.2374489 -0.1833521 -2)
(0.2374489 -0.1833521 2)
(0.2501993 -0.1655303 -2)
(0.2501993 -0.1655303 2)
(0.2616148 -0.1468254 -2)
(0.2616148 -0.1468254 2)
(0.2716345 -0.127337 -2)
(0.2716345 -0.127337 2)
(0.2802048 -0.1071693 -2)
(0.2802048 -0.1071693 2)
(0.2872802 -0.08642973 -2)
(0.2872802 -0.08642973 2)
(0.2928227 -0.06522905 -2)
(0.2928227 -0.06522905 2)
(0.296803 -0.04368035 -2)
(0.296803 -0.04368035 2)
(0.2991997 -0.02189859 -2)
(0.2991997 -0.02189859 2)
(0.3 0 -2)
)


// edges:

172
(
(0 1)
(2 3)
(4 0)
(3 5)
(6 4)
(5 7)
(8 6)
(7 9)
(10 8)
(9 11)
(12 10)
(11 13)
(14 12)
(13 15)
(16 14)
(15 17)
(18 16)
(17 19)
(20 18)
(19 21)
(22 20)
(21 23)
(24 22)
(23 25)
(26 24)
(25 27)
(28 26)
(27 29)
(30 28)
(29 31)
(32 30)
(31 33)
(34 32)
(33 35)
(36 34)
(35 37)
(38 36)
(37 39)
(40 38)
(39 41)
(42 40)
(41 43)
(44 42)
(43 45)
(46 44)
(45 47)
(48 46)
(47 49)
(50 48)
(49 51)
(52 50)
(51 53)
(54 52)
(53 55)
(56 54)
(55 57)
(58 56)
(57 59)
(60 58)
(59 61)
(62 60)
(61 63)
(64 62)
(63 65)
(66 64)
(65 67)
(68 66)
(67 69)
(70 68)
(69 71)
(72 70)
(71 73)
(74 72)
(73 75)
(76 74)
(75 77)
(78 76)
(77 79)
(80 78)
(79 81)
(82 80)
(81 83)
(84 82)
(83 85)
(86 84)
(85 87)
(88 86)
(87 89)
(90 88)
(89 91)
(92 90)
(91 93)
(94 92)
(93 95)
(96 94)
(95 97)
(98 96)
(97 99)
(100 98)
(99 101)
(102 100)
(101 103)
(104 102)
(103 105)
(106 104)
(105 107)
(108 106)
(107 109)
(110 108)
(109 111)
(112 110)
(111 113)
(114 112)
(113 115)
(116 114)
(115 117)
(118 116)
(117 119)
(120 118)
(119 121)
(122 120)
(121 123)
(124 122)
(123 125)
(126 124)
(125 127)
(128 126)
(127 129)
(130 128)
(129 131)
(132 130)
(131 133)
(134 132)
(133 135)
(136 134)
(135 137)
(138 136)
(137 139)
(140 138)
(139 141)
(142 140)
(141 143)
(144 142)
(143 145)
(146 144)
(145 147)
(148 146)
(147 149)
(150 148)
(149 151)
(152 150)
(151 153)
(154 152)
(153 155)
(156 154)
(155 157)
(158 156)
(157 159)
(160 158)
(159 161)
(162 160)
(161 163)
(164 162)
(163 165)
(166 164)
(165 167)
(168 166)
(167 169)
(170 168)
(169 171)
(1 170)
(171 2)
)

// * * * * * * * * * * * * * * * * * * * * * * * * * * * * * * * * * * * * * //


// ************************************************************************* //
