/*--------------------------------*- C++ -*----------------------------------*\
| =========                 |                                                 |
| \\      /  F ield         | OpenFOAM: The Open Source CFD Toolbox           |
|  \\    /   O peration     | Version:  v2006                                 |
|   \\  /    A nd           | Website:  www.openfoam.com                      |
|    \\/     M anipulation  |                                                 |
\*---------------------------------------------------------------------------*/
FoamFile
{
    version     2.0;
    format      ascii;
    class       volVectorField;
    location    "0";
    object      U;
}
// * * * * * * * * * * * * * * * * * * * * * * * * * * * * * * * * * * * * * //

dimensions      [0 1 -1 0 0 0 0];


internalField   uniform (0 0 0);

boundaryField
{
    leftSide
    {
        type            zeroGradient;
    }
    rightSide
    {
        type            waveTransmissive;
        gamma           1.4;
        fieldInf        (0 0 0);
        lInf            1000;
        value           uniform (0 0 0);
    }
    emptywalls
    {
        type            empty;
    }
}


// ************************************************************************* //
