/*--------------------------------*- C++ -*----------------------------------*\
| =========                 |                                                 |
| \\      /  F ield         | OpenFOAM: The Open Source CFD Toolbox           |
|  \\    /   O peration     | Version:  4.x                                   |
|   \\  /    A nd           | Web:      www.OpenFOAM.org                      |
|    \\/     M anipulation  |                                                 |
\*---------------------------------------------------------------------------*/
FoamFile
{
    version     2.0;
    format      ascii;
    class       polyBoundaryMesh;
    location    "constant/polyMesh";
    object      boundary;
}
// * * * * * * * * * * * * * * * * * * * * * * * * * * * * * * * * * * * * * //

5
(
    plenum
    {
        type            patch;
        nFaces          144;
        startFace       7806;
    }
    outlet
    {
        type            patch;
        nFaces          0;
        startFace       7950;
    }
    sides
    {
        type            symmetry;
        inGroups        1(symmetry);
        nFaces          0;
        startFace       7950;
    }
    walls
    {
        type            wall;
        inGroups        1(wall);
        nFaces          936;
        startFace       7950;
    }
    procBoundary2to3
    {
        type            processor;
        inGroups        1(processor);
        nFaces          156;
        startFace       8886;
        matchTolerance  0.0001;
        transform       unknown;
        myProcNo        2;
        neighbProcNo    3;
    }
)

// ************************************************************************* //
