/*--------------------------------*- C++ -*----------------------------------*\
| =========                 |                                                 |
| \\      /  F ield         | OpenFOAM: The Open Source CFD Toolbox           |
|  \\    /   O peration     | Version:  v2006                                 |
|   \\  /    A nd           | Website:  www.openfoam.com                      |
|    \\/     M anipulation  |                                                 |
\*---------------------------------------------------------------------------*/
FoamFile
{
    version     2.0;
    format      ascii;
    class       featureEdgeMesh;
    location    "constant/triSurface";
    object      body.eMesh;
}
// * * * * * * * * * * * * * * * * * * * * * * * * * * * * * * * * * * * * * //


// points:

382
(
(0.507643 -0.3145072 -0.1209772)
(0.507643 -0.3121002 -0.1197031)
(0.507643 -0.3241119 -0.1254146)
(0.507643 -0.2956161 -0.1089659)
(0.507643 -0.3346728 -0.1291848)
(0.507643 -0.345542 -0.131939)
(0.507643 -0.2863212 -0.1010179)
(0.507643 -0.2769982 -0.09107807)
(0.507643 -0.3558897 -0.1335465)
(0.507643 -0.3016036 -0.139014)
(0.507643 -0.2901895 -0.1321881)
(0.507643 -0.2705491 -0.08254546)
(0.507643 -0.2649895 -0.0734914)
(0.507643 -0.3096348 -0.143063)
(0.507643 -0.2805189 -0.1250572)
(0.507643 -0.2709273 -0.1167022)
(0.507643 -0.2603686 -0.06396984)
(0.507643 -0.3662293 -0.134182)
(0.507643 -0.3488275 -0.1548069)
(0.507643 -0.3354128 -0.1521831)
(0.507643 -0.3223166 -0.1482503)
(0.507643 -0.3624645 -0.1560671)
(0.507643 -0.2567358 -0.05403471)
(0.507643 -0.3765074 -0.1338481)
(0.507643 -0.2528003 -0.03483375)
(0.507643 -0.2621474 -0.1075314)
(0.507643 -0.3866706 -0.1325476)
(0.507643 -0.3754841 -0.1559554)
(0.507643 -0.3131494 0.06997589)
(0.507643 -0.3306332 0.07821984)
(0.507643 -0.3084136 0.06723057)
(0.507643 -0.2527485 -0.01486387)
(0.507643 -0.2542578 -0.09758979)
(0.507643 -0.2473373 -0.08692196)
(0.507643 -0.2417007 -0.07608597)
(0.507643 -0.3413682 0.08167624)
(0.507643 -0.2563742 0.003497801)
(0.507643 -0.2637175 0.02146895)
(0.507643 -0.3970155 -0.1301845)
(0.507643 -0.3882669 -0.1545728)
(0.507643 -0.3539708 0.0842787)
(0.507643 -0.3648578 0.08537076)
(0.507643 -0.2981871 0.06045849)
(0.507643 -0.2372188 -0.06501745)
(0.507643 -0.2338684 -0.05379787)
(0.507643 -0.2316267 -0.04250873)
(0.507643 -0.2741788 0.03756163)
(0.507643 -0.3754108 0.08536065)
(0.507643 -0.3855762 0.08433904)
(0.507643 -0.3953002 0.08239661)
(0.507643 -0.2304446 -0.03075068)
(0.507643 -0.2808794 0.04532234)
(0.507643 -0.4069138 -0.1268673)
(0.507643 -0.4007403 -0.1519556)
(0.507643 -0.2886221 0.05279877)
(0.507643 -0.3024541 0.08917738)
(0.507643 -0.3161067 0.09599423)
(0.507643 -0.4050641 0.07943517)
(0.507643 -0.4144232 0.0755583)
(0.507643 -0.2965033 0.08571243)
(0.507643 -0.230415 -0.01902903)
(0.507643 -0.2315218 -0.007412881)
(0.507643 -0.3295 0.1010123)
(0.507643 -0.4233246 0.07081185)
(0.507643 -0.4317153 0.06524167)
(0.507643 -0.2821819 0.07594942)
(0.507643 -0.2337492 0.004028658)
(0.507643 -0.237166 0.01546604)
(0.507643 -0.4128317 -0.1481401)
(0.507643 -0.3414111 0.1042669)
(0.507643 -0.3534011 0.1063964)
(0.507643 -0.3654222 0.1073975)
(0.507643 -0.4398521 0.0586164)
(0.507643 -0.4472376 0.05129074)
(0.507643 -0.2706407 0.0661696)
(0.507643 -0.4163197 -0.1226589)
(0.507643 -0.3774267 0.1072671)
(0.507643 -0.3897355 0.1059427)
(0.507643 -0.4017004 0.1034537)
(0.507643 -0.4132592 0.09985078)
(0.507643 -0.4538445 0.04333998)
(0.507643 -0.2417597 0.02666185)
(0.507643 -0.2475414 0.03754077)
(0.507643 -0.2545225 0.04802749)
(0.507643 -0.4251871 -0.1176221)
(0.507643 -0.4244092 -0.1431912)
(0.507643 -0.2615356 0.05673996)
(0.507643 -0.4596457 0.03483941)
(0.507643 -0.4648558 0.02537217)
(0.507643 -0.4243494 0.09518453)
(0.507643 -0.4352577 0.08929493)
(0.507643 -0.4354229 -0.1371526)
(0.507643 -0.4691139 0.01546214)
(0.507643 -0.4553673 0.07423693)
(0.507643 -0.464389 0.06511869)
(0.507643 -0.4338214 -0.111547)
(0.507643 -0.4723976 0.005185896)
(0.507643 -0.4456269 0.08230404)
(0.507643 -0.4725082 0.05510158)
(-0.08986801 -0.004872502 0.283736)
(-0.0867195 -0.02407755 0.283736)
(-0.07951608 -0.04215676 0.283736)
(-0.06859458 -0.05826477 0.283736)
(-0.05446568 -0.07164837 0.283736)
(-0.03779002 -0.08168179 0.283736)
(-0.01934734 -0.08789585 0.283736)
(-0.08881439 0.01456038 0.283736)
(6.938894e-18 -0.09 0.283736)
(-0.0836079 0.03331243 0.283736)
(-0.07449201 0.05050684 0.283736)
(0.507643 -0.4457994 -0.1300753)
(0.507643 -0.4746843 -0.00537998)
(0.507643 -0.47962 0.04431229)
(0.507643 -0.4856687 0.03283198)
(-0.06189295 0.0653396 0.283736)
(0.01934734 -0.08789585 0.283736)
(0.03779002 -0.08168179 0.283736)
(0.507643 -0.4418476 -0.1046333)
(0.507643 -0.4554655 -0.1220099)
(0.507643 -0.47596 -0.01628787)
(-0.04639985 0.07711715 0.283736)
(0.05446568 -0.07164837 0.283736)
(0.507643 -0.4492034 -0.09692266)
(0.507643 -0.4905985 0.02074187)
(0.507643 -0.4761705 -0.02724629)
(-0.02873714 0.08528879 0.283736)
(-0.009730712 0.08947241 0.283736)
(0.507643 -0.4644761 -0.112864)
(0.507643 -0.4943444 0.008160613)
(0.507643 -0.4968415 -0.004700547)
(0.507643 -0.4753173 -0.0381729)
(-0.1098892 0.004935131 0.283736)
(-0.1090045 -0.01476566 0.283736)
(-0.1046162 -0.03399187 0.283736)
(-0.0968655 -0.05212555 0.283736)
(-0.08600146 -0.06858388 0.283736)
(-0.05641892 -0.09442937 0.283736)
(-0.03865123 -0.1029858 0.283736)
(-0.01964126 -0.1082323 0.283736)
(6.938894e-18 -0.11 0.283736)
(-0.1072421 0.0244773 0.283736)
(-0.1011481 0.04323275 0.283736)
(-0.09180306 0.06059867 0.283736)
(0.06859458 -0.05826477 0.283736)
(0.507643 -0.4558268 -0.08845659)
(0.009730712 0.08947241 0.283736)
(0.01964126 -0.1082323 0.283736)
(0.03865123 -0.1029858 0.283736)
(0.05641892 -0.09442937 0.283736)
(-0.07237326 -0.08283786 0.283736)
(0.507643 -0.4725075 -0.102937)
(0.507643 -0.4980777 -0.01774435)
(-0.07950743 0.07601689 0.283736)
(-0.06465638 0.08899187 0.283736)
(-0.04772721 0.09910657 0.283736)
(0.07951608 -0.04215676 0.283736)
(0.507643 -0.4616562 -0.07927395)
(0.507643 -0.4980409 -0.03087356)
(0.507643 -0.4967419 -0.04383751)
(0.507643 -0.4734019 -0.04898535)
(0.02873714 0.08528879 0.283736)
(-0.009860324 0.1095572 0.283736)
(-0.02926405 0.1060359 0.283736)
(0.009860324 0.1095572 0.283736)
(0.07237326 -0.08283786 0.283736)
(0.507643 -0.4795212 -0.092313)
(0.507643 -0.4942023 -0.05658786)
(0.507643 -0.4704713 -0.05946462)
(0.08600146 -0.06858388 0.283736)
(0.0867195 -0.02407755 0.283736)
(0.02926405 0.1060359 0.283736)
(0.04639985 0.07711715 0.283736)
(0.0968655 -0.05212555 0.283736)
(0.507643 -0.4665469 -0.06958539)
(0.507643 -0.4854787 -0.08107629)
(0.507643 -0.4904414 -0.06903174)
(0.08986801 -0.004872502 0.283736)
(0.08881439 0.01456038 0.283736)
(0.0836079 0.03331243 0.283736)
(0.1046162 -0.03399187 0.283736)
(0.06189295 0.0653396 0.283736)
(0.04772721 0.09910657 0.283736)
(0.07449201 0.05050684 0.283736)
(0.1090045 -0.01476566 0.283736)
(0.06465638 0.08899187 0.283736)
(0.1098892 0.004935131 0.283736)
(0.1072421 0.0244773 0.283736)
(0.1011481 0.04323275 0.283736)
(0.09180306 0.06059867 0.283736)
(0.07950743 0.07601689 0.283736)
(0.09753416 -0.2969694 -0.190476)
(0.1161728 -0.2901855 -0.190476)
(0.1343436 -0.2822332 -0.190476)
(0.1519734 -0.2731443 -0.190476)
(0.1689913 -0.2629557 -0.190476)
(0.07850283 -0.3025575 -0.190476)
(0.1853288 -0.2517081 -0.190476)
(0.20092 -0.2394471 -0.190476)
(0.2157021 -0.2262219 -0.190476)
(0.2296157 -0.2120858 -0.190476)
(0.0591554 -0.3069274 -0.190476)
(0.2426048 -0.1970956 -0.190476)
(0.03956976 -0.3100613 -0.190476)
(0.2546169 -0.1813119 -0.190476)
(0.0198248 -0.3119467 -0.190476)
(-9.020562e-17 -0.312576 -0.190476)
(0.2656038 -0.164798 -0.190476)
(0.2755212 -0.1476206 -0.190476)
(-0.0198248 -0.3119467 -0.190476)
(-0.03956976 -0.3100613 -0.190476)
(0.2843291 -0.1298488 -0.190476)
(0.2919922 -0.1115541 -0.190476)
(-0.0591554 -0.3069274 -0.190476)
(-0.07850283 -0.3025575 -0.190476)
(0.2984795 -0.09281018 -0.190476)
(-0.09753416 -0.2969694 -0.190476)
(0.303765 -0.07369258 -0.190476)
(0.3078273 -0.05427825 -0.190476)
(-0.1161728 -0.2901855 -0.190476)
(-0.1343436 -0.2822332 -0.190476)
(0.3106501 -0.03464536 -0.190476)
(0.3122219 -0.01487296 -0.190476)
(-0.1519734 -0.2731443 -0.190476)
(-0.1689913 -0.2629557 -0.190476)
(0.3125367 0.00495932 -0.190476)
(-0.1853288 -0.2517081 -0.190476)
(0.3115929 0.02477163 -0.190476)
(0.3093944 0.0444842 -0.190476)
(-0.20092 -0.2394471 -0.190476)
(-0.2157021 -0.2262219 -0.190476)
(0.3059502 0.06401765 -0.190476)
(0.3012739 0.08329332 -0.190476)
(-0.2296157 -0.2120858 -0.190476)
(-0.2426048 -0.1970956 -0.190476)
(0.2953846 0.1022336 -0.190476)
(-0.2546169 -0.1813119 -0.190476)
(0.2883058 0.1207622 -0.190476)
(-0.2656038 -0.164798 -0.190476)
(0.2800662 0.1388046 -0.190476)
(-0.2755212 -0.1476206 -0.190476)
(-0.2843291 -0.1298488 -0.190476)
(0.2706988 0.156288 -0.190476)
(-0.2919922 -0.1115541 -0.190476)
(-0.2984795 -0.09281018 -0.190476)
(0.2602414 0.1731421 -0.190476)
(-0.303765 -0.07369258 -0.190476)
(-0.3078273 -0.05427825 -0.190476)
(-0.3106501 -0.03464536 -0.190476)
(-0.3122219 -0.01487296 -0.190476)
(0.2487361 0.189299 -0.190476)
(-0.3125367 0.00495932 -0.190476)
(-0.3115929 0.02477163 -0.190476)
(0.2362292 0.2046937 -0.190476)
(-0.3093944 0.0444842 -0.190476)
(-0.3059502 0.06401765 -0.190476)
(-0.3012739 0.08329332 -0.190476)
(-0.2953846 0.1022336 -0.190476)
(-0.2883058 0.1207622 -0.190476)
(0.2227711 0.2192642 -0.190476)
(-0.2800662 0.1388046 -0.190476)
(0.208416 0.2329518 -0.190476)
(-0.2706988 0.156288 -0.190476)
(-0.2602414 0.1731421 -0.190476)
(0.1932217 0.2457013 -0.190476)
(-0.2487361 0.189299 -0.190476)
(0.1772493 0.2574615 -0.190476)
(-0.2362292 0.2046937 -0.190476)
(-0.2227711 0.2192642 -0.190476)
(-0.208416 0.2329518 -0.190476)
(0.1605632 0.268185 -0.190476)
(-0.1932217 0.2457013 -0.190476)
(0.1432306 0.2778286 -0.190476)
(-0.1772493 0.2574615 -0.190476)
(0.1253213 0.2863535 -0.190476)
(0.1069073 0.2937254 -0.190476)
(-0.1605632 0.268185 -0.190476)
(0.08806284 0.2999145 -0.190476)
(-0.1432306 0.2778286 -0.190476)
(-0.1253213 0.2863535 -0.190476)
(0.06886379 0.3048959 -0.190476)
(0.04938744 0.3086497 -0.190476)
(0.02971224 0.3111606 -0.190476)
(0.009917391 0.3124186 -0.190476)
(-0.009917391 0.3124186 -0.190476)
(-0.1069073 0.2937254 -0.190476)
(-0.02971224 0.3111606 -0.190476)
(-0.04938744 0.3086497 -0.190476)
(-0.06886379 0.3048959 -0.190476)
(-0.08806284 0.2999145 -0.190476)
(-0.07823204 -0.2824043 -0.17094)
(-0.0971186 -0.2764786 -0.17094)
(-0.115562 -0.2692914 -0.17094)
(-0.05898852 -0.2870415 -0.17094)
(-0.1334782 -0.2608755 -0.17094)
(-0.03947585 -0.2903689 -0.17094)
(-0.1507853 -0.2512693 -0.17094)
(-0.01978306 -0.2923715 -0.17094)
(-0.1674044 -0.2405165 -0.17094)
(-1.804112e-16 -0.29304 -0.17094)
(-0.1832597 -0.2286664 -0.17094)
(0.01978306 -0.2923715 -0.17094)
(-0.1982789 -0.2157729 -0.17094)
(0.03947585 -0.2903689 -0.17094)
(-0.2123933 -0.2018949 -0.17094)
(0.05898852 -0.2870415 -0.17094)
(-0.2255386 -0.1870956 -0.17094)
(0.07823204 -0.2824043 -0.17094)
(-0.2376548 -0.1714428 -0.17094)
(0.0971186 -0.2764786 -0.17094)
(-0.2486867 -0.1550076 -0.17094)
(0.115562 -0.2692914 -0.17094)
(-0.2585839 -0.1378652 -0.17094)
(0.1334782 -0.2608755 -0.17094)
(-0.2673012 -0.1200937 -0.17094)
(0.1507853 -0.2512693 -0.17094)
(-0.2747989 -0.1017743 -0.17094)
(0.1674044 -0.2405165 -0.17094)
(-0.2810427 -0.08299054 -0.17094)
(0.1832597 -0.2286664 -0.17094)
(-0.2860042 -0.06382809 -0.17094)
(0.1982789 -0.2157729 -0.17094)
(-0.2896608 -0.0443744 -0.17094)
(0.2123933 -0.2018949 -0.17094)
(-0.2919956 -0.02471824 -0.17094)
(0.2255386 -0.1870956 -0.17094)
(-0.2929982 -0.004949293 -0.17094)
(0.2376548 -0.1714428 -0.17094)
(-0.2926639 0.01484223 -0.17094)
(0.2486867 -0.1550076 -0.17094)
(-0.2909942 0.03456604 -0.17094)
(0.2585839 -0.1378652 -0.17094)
(0.2673012 -0.1200937 -0.17094)
(0.2747989 -0.1017743 -0.17094)
(-0.2879968 0.05413212 -0.17094)
(0.2810427 -0.08299054 -0.17094)
(-0.2836853 0.07345122 -0.17094)
(0.2860042 -0.06382809 -0.17094)
(0.2896608 -0.0443744 -0.17094)
(0.2919956 -0.02471824 -0.17094)
(0.2929982 -0.004949293 -0.17094)
(0.2926639 0.01484223 -0.17094)
(0.2909942 0.03456604 -0.17094)
(0.2879968 0.05413212 -0.17094)
(-0.2780795 0.09243517 -0.17094)
(0.2836853 0.07345122 -0.17094)
(0.2780795 0.09243517 -0.17094)
(-0.2712048 0.1109974 -0.17094)
(0.2712048 0.1109974 -0.17094)
(0.2630926 0.1290531 -0.17094)
(-0.2630926 0.1290531 -0.17094)
(-0.2537801 0.14652 -0.17094)
(0.2537801 0.14652 -0.17094)
(-0.2433096 0.1633184 -0.17094)
(0.2433096 0.1633184 -0.17094)
(0.2317289 0.1793715 -0.17094)
(-0.2317289 0.1793715 -0.17094)
(0.2190909 0.1946063 -0.17094)
(-0.2190909 0.1946063 -0.17094)
(0.2054533 0.2089531 -0.17094)
(-0.2054533 0.2089531 -0.17094)
(0.1908782 0.2223465 -0.17094)
(-0.1908782 0.2223465 -0.17094)
(0.1754322 0.2347254 -0.17094)
(-0.1754322 0.2347254 -0.17094)
(0.1591857 0.2460332 -0.17094)
(-0.1591857 0.2460332 -0.17094)
(0.1422129 0.2562185 -0.17094)
(0.1245912 0.2652348 -0.17094)
(-0.1245912 0.2652348 -0.17094)
(-0.1422129 0.2562185 -0.17094)
(0.106401 0.2730408 -0.17094)
(-0.106401 0.2730408 -0.17094)
(0.08772537 0.279601 -0.17094)
(-0.08772537 0.279601 -0.17094)
(0.06864944 0.2848854 -0.17094)
(-0.06864944 0.2848854 -0.17094)
(0.009897174 0.2928728 -0.17094)
(-0.009897174 0.2928728 -0.17094)
(-0.02964636 0.2915365 -0.17094)
(-0.04926028 0.28887 -0.17094)
(0.02964636 0.2915365 -0.17094)
(0.04926028 0.28887 -0.17094)
)


// edges:

382
(
(0 1)
(2 0)
(1 3)
(4 2)
(5 4)
(3 6)
(6 7)
(8 5)
(9 10)
(7 11)
(11 12)
(13 9)
(10 14)
(14 15)
(12 16)
(17 8)
(18 19)
(19 20)
(21 18)
(20 13)
(16 22)
(23 17)
(22 24)
(15 25)
(26 23)
(27 21)
(28 29)
(30 28)
(24 31)
(25 32)
(32 33)
(33 34)
(29 35)
(31 36)
(36 37)
(38 26)
(39 27)
(35 40)
(40 41)
(42 30)
(43 44)
(44 45)
(37 46)
(34 43)
(41 47)
(47 48)
(48 49)
(45 50)
(46 51)
(52 38)
(53 39)
(51 54)
(55 56)
(49 57)
(57 58)
(54 42)
(59 55)
(50 60)
(60 61)
(56 62)
(58 63)
(63 64)
(65 59)
(61 66)
(66 67)
(68 53)
(62 69)
(69 70)
(70 71)
(64 72)
(72 73)
(74 65)
(75 52)
(71 76)
(77 78)
(76 77)
(78 79)
(73 80)
(67 81)
(81 82)
(82 83)
(75 84)
(85 68)
(86 74)
(80 87)
(83 86)
(87 88)
(79 89)
(89 90)
(91 85)
(88 92)
(93 94)
(84 95)
(92 96)
(90 97)
(97 93)
(94 98)
(99 100)
(100 101)
(101 102)
(102 103)
(103 104)
(104 105)
(106 99)
(105 107)
(108 106)
(109 108)
(110 91)
(96 111)
(98 112)
(112 113)
(114 109)
(107 115)
(115 116)
(95 117)
(118 110)
(111 119)
(120 114)
(116 121)
(122 117)
(113 123)
(119 124)
(125 120)
(126 125)
(127 118)
(128 129)
(123 128)
(124 130)
(131 132)
(132 133)
(134 135)
(136 137)
(138 139)
(137 138)
(140 131)
(141 140)
(142 141)
(121 143)
(122 144)
(145 126)
(139 146)
(146 147)
(147 148)
(133 134)
(135 149)
(149 136)
(150 127)
(129 151)
(152 142)
(153 152)
(154 153)
(143 155)
(144 156)
(151 157)
(157 158)
(130 159)
(160 145)
(161 162)
(163 161)
(162 154)
(148 164)
(165 150)
(158 166)
(159 167)
(164 168)
(155 169)
(170 163)
(171 160)
(168 172)
(156 173)
(174 165)
(166 175)
(173 167)
(169 176)
(176 177)
(177 178)
(172 179)
(180 171)
(175 174)
(181 170)
(178 182)
(179 183)
(182 180)
(184 181)
(183 185)
(185 186)
(186 187)
(187 188)
(189 184)
(188 189)
(190 191)
(191 192)
(192 193)
(193 194)
(195 190)
(194 196)
(196 197)
(197 198)
(198 199)
(200 195)
(199 201)
(202 200)
(201 203)
(204 202)
(205 204)
(203 206)
(206 207)
(208 205)
(209 208)
(207 210)
(210 211)
(212 209)
(213 212)
(214 211)
(215 213)
(214 216)
(216 217)
(218 215)
(219 218)
(220 217)
(220 221)
(222 219)
(223 222)
(224 221)
(225 223)
(224 226)
(226 227)
(228 225)
(229 228)
(230 227)
(230 231)
(232 229)
(233 232)
(234 231)
(233 235)
(234 236)
(235 237)
(238 236)
(237 239)
(239 240)
(241 238)
(240 242)
(242 243)
(241 244)
(243 245)
(245 246)
(246 247)
(247 248)
(249 244)
(248 250)
(250 251)
(249 252)
(251 253)
(253 254)
(254 255)
(255 256)
(256 257)
(258 252)
(257 259)
(260 258)
(259 261)
(261 262)
(263 260)
(262 264)
(265 263)
(264 266)
(266 267)
(267 268)
(269 265)
(268 270)
(271 269)
(270 272)
(273 271)
(274 273)
(272 275)
(276 274)
(277 278)
(275 277)
(276 279)
(279 280)
(280 281)
(281 282)
(282 283)
(278 284)
(283 285)
(285 286)
(286 287)
(287 288)
(284 288)
(289 290)
(290 291)
(292 289)
(291 293)
(294 292)
(293 295)
(296 294)
(295 297)
(298 296)
(297 299)
(300 298)
(299 301)
(302 300)
(301 303)
(304 302)
(305 303)
(306 304)
(305 307)
(308 306)
(307 309)
(310 308)
(309 311)
(312 310)
(311 313)
(312 314)
(313 315)
(316 314)
(315 317)
(318 316)
(317 319)
(320 318)
(321 319)
(322 320)
(321 323)
(322 324)
(325 323)
(324 326)
(327 325)
(326 328)
(327 329)
(328 330)
(330 331)
(331 332)
(333 329)
(332 334)
(333 335)
(334 336)
(336 337)
(337 338)
(338 339)
(339 340)
(340 341)
(341 342)
(343 335)
(342 344)
(344 345)
(343 346)
(345 347)
(347 348)
(349 346)
(349 350)
(348 351)
(350 352)
(351 353)
(353 354)
(355 352)
(354 356)
(355 357)
(356 358)
(359 357)
(358 360)
(361 359)
(360 362)
(363 361)
(362 364)
(365 363)
(364 366)
(366 367)
(368 369)
(369 365)
(367 370)
(371 368)
(370 372)
(373 371)
(372 374)
(375 373)
(376 377)
(377 378)
(378 379)
(379 375)
(380 376)
(381 380)
(374 381)
)

// * * * * * * * * * * * * * * * * * * * * * * * * * * * * * * * * * * * * * //


// ************************************************************************* //
