/*--------------------------------*- C++ -*----------------------------------*\
| =========                 |                                                 |
| \\      /  F ield         | OpenFOAM: The Open Source CFD Toolbox           |
|  \\    /   O peration     | Version:  v2006                                 |
|   \\  /    A nd           | Website:  www.openfoam.com                      |
|    \\/     M anipulation  |                                                 |
\*---------------------------------------------------------------------------*/
FoamFile
{
    version     2.0;
    format      ascii;
    class       featureEdgeMesh;
    location    "constant/triSurface";
    object      rotor.eMesh;
}
// * * * * * * * * * * * * * * * * * * * * * * * * * * * * * * * * * * * * * //


// points:

204
(
(-0.02443623 0.2773134 -0.1187056)
(-0.04415729 0.2748636 -0.1187056)
(-0.2779684 0.01527831 -0.1187056)
(-0.2783501 -0.004590655 -0.1187056)
(0.01527831 0.2779684 -0.1187056)
(-0.004590655 0.2783501 -0.1187056)
(0.03506943 0.2761703 -0.1187056)
(0.05468183 0.2729648 -0.1187056)
(0.2748636 0.04415729 -0.1187056)
(0.2710132 0.06365332 -0.1187056)
(0.2133693 -0.1788112 -0.1187056)
(0.2255819 -0.163134 -0.1187056)
(0.02443623 -0.2773134 -0.1187056)
(0.04415729 -0.2748636 -0.1187056)
(-0.01527831 -0.2779684 -0.1187056)
(0.004590655 -0.2783501 -0.1187056)
(-0.03506943 -0.2761703 -0.1187056)
(-0.05468183 -0.2729648 -0.1187056)
(-0.2748636 -0.04415729 -0.1187056)
(-0.2710132 -0.06365332 -0.1187056)
(0.170484 -0.2200797 -0.1187056)
(0.18575 -0.2073568 -0.1187056)
(0.2000694 -0.1935772 -0.1187056)
(0.2683683 -0.0740156 -0.1187056)
(0.2729648 -0.05468183 -0.1187056)
(0.2624044 -0.0929722 -0.1187056)
(-0.170484 0.2200797 -0.1187056)
(-0.18575 0.2073568 -0.1187056)
(-0.2000694 0.1935772 -0.1187056)
(-0.2133693 0.1788112 -0.1187056)
(-0.2255819 0.163134 -0.1187056)
(-0.2366449 0.1466255 -0.1187056)
(-0.2683683 0.0740156 -0.1187056)
(-0.2729648 0.05468183 -0.1187056)
(-0.2624044 0.0929722 -0.1187056)
(-0.2200797 -0.170484 -0.1187056)
(-0.2073568 -0.18575 -0.1187056)
(-0.1935772 -0.2000694 -0.1187056)
(-0.1788112 -0.2133693 -0.1187056)
(-0.163134 -0.2255819 -0.1187056)
(-0.1466255 -0.2366449 -0.1187056)
(-0.1293699 -0.2465021 -0.1187056)
(-0.111455 -0.2551032 -0.1187056)
(-0.0929722 -0.2624044 -0.1187056)
(-0.0740156 -0.2683683 -0.1187056)
(0.1543494 -0.2316812 -0.1187056)
(0.2366449 -0.1466255 -0.1187056)
(0.2465021 -0.1293699 -0.1187056)
(-0.2591958 -0.1015746 -0.1187056)
(-0.2512892 -0.1198066 -0.1187056)
(0.2551032 -0.111455 -0.1187056)
(-0.2657817 -0.082825 -0.1187056)
(-0.2773134 -0.02443623 -0.1187056)
(0.2761703 -0.03506943 -0.1187056)
(0.2779684 -0.01527831 -0.1187056)
(0.2783501 0.004590655 -0.1187056)
(0.2773134 0.02443623 -0.1187056)
(-0.2761703 0.03506943 -0.1187056)
(0.2657817 0.082825 -0.1187056)
(0.0929722 0.2624044 -0.1187056)
(0.0740156 0.2683683 -0.1187056)
(-0.2551032 0.111455 -0.1187056)
(-0.2465021 0.1293699 -0.1187056)
(0.2591958 0.1015746 -0.1187056)
(0.2512892 0.1198066 -0.1187056)
(0.242102 0.1374281 -0.1187056)
(0.2316812 0.1543494 -0.1187056)
(0.2200797 0.170484 -0.1187056)
(0.2073568 0.18575 -0.1187056)
(0.1935772 0.2000694 -0.1187056)
(0.1788112 0.2133693 -0.1187056)
(0.163134 0.2255819 -0.1187056)
(-0.1543494 0.2316812 -0.1187056)
(0.1466255 0.2366449 -0.1187056)
(0.1293699 0.2465021 -0.1187056)
(0.111455 0.2551032 -0.1187056)
(0.06365332 -0.2710132 -0.1187056)
(0.082825 -0.2657817 -0.1187056)
(0.1015746 -0.2591958 -0.1187056)
(0.1198066 -0.2512892 -0.1187056)
(0.1374281 -0.242102 -0.1187056)
(-0.2316812 -0.1543494 -0.1187056)
(-0.242102 -0.1374281 -0.1187056)
(-0.06365332 0.2710132 -0.1187056)
(-0.082825 0.2657817 -0.1187056)
(-0.1015746 0.2591958 -0.1187056)
(-0.1198066 0.2512892 -0.1187056)
(-0.1374281 0.242102 -0.1187056)
(0.07843097 0.2671113 -0.131404)
(0.09728663 0.2608356 -0.131404)
(0.05917563 0.272026 -0.131404)
(0.03961874 0.2755544 -0.131404)
(-0.272026 -0.05917563 -0.131404)
(-0.2755544 -0.03961874 -0.131404)
(-0.2671113 -0.07843097 -0.131404)
(-0.2608356 -0.09728663 -0.131404)
(0.2608356 -0.09728663 -0.131404)
(0.2532306 -0.1156466 -0.131404)
(0.2443353 -0.1334172 -0.131404)
(0.2341949 -0.1505079 -0.131404)
(0.1505079 -0.2341949 -0.131404)
(0.1334172 -0.2443353 -0.131404)
(0.1156466 -0.2532306 -0.131404)
(0.09728663 -0.2608356 -0.131404)
(0.1334172 0.2443353 -0.131404)
(0.1505079 0.2341949 -0.131404)
(0.1156466 0.2532306 -0.131404)
(0.2532306 0.1156466 -0.131404)
(0.2608356 0.09728663 -0.131404)
(0.2443353 0.1334172 -0.131404)
(0.2341949 0.1505079 -0.131404)
(0.2671113 0.07843097 -0.131404)
(0.272026 0.05917563 -0.131404)
(0.2755544 0.03961874 -0.131404)
(-0.07843097 -0.2671113 -0.131404)
(-0.09728663 -0.2608356 -0.131404)
(-0.05917563 -0.272026 -0.131404)
(-0.03961874 -0.2755544 -0.131404)
(-0.1334172 -0.2443353 -0.131404)
(-0.1505079 -0.2341949 -0.131404)
(-0.1156466 -0.2532306 -0.131404)
(-0.2532306 -0.1156466 -0.131404)
(-0.2443353 -0.1334172 -0.131404)
(-0.2341949 -0.1505079 -0.131404)
(0.2228611 -0.1668317 -0.131404)
(0.2103916 -0.1823054 -0.131404)
(0.19685 -0.19685 -0.131404)
(-0.19685 -0.19685 -0.131404)
(-0.2103916 -0.1823054 -0.131404)
(-0.2228611 -0.1668317 -0.131404)
(0.272026 -0.05917563 -0.131404)
(0.2671113 -0.07843097 -0.131404)
(0.2755544 -0.03961874 -0.131404)
(0.2776787 -0.01985997 -0.131404)
(-0.2776787 -0.01985997 -0.131404)
(0.01985997 0.2776787 -0.131404)
(0.278388 3.770896e-18 -0.131404)
(-0.278388 6.938894e-17 -0.131404)
(-4.917459e-17 0.278388 -0.131404)
(0.2776787 0.01985997 -0.131404)
(-0.2776787 0.01985997 -0.131404)
(-0.01985997 0.2776787 -0.131404)
(-0.2755544 0.03961874 -0.131404)
(-0.03961874 0.2755544 -0.131404)
(-0.272026 0.05917563 -0.131404)
(-0.05917563 0.272026 -0.131404)
(-0.2671113 0.07843097 -0.131404)
(-0.07843097 0.2671113 -0.131404)
(-0.2608356 0.09728663 -0.131404)
(-0.2532306 0.1156466 -0.131404)
(0.2228611 0.1668317 -0.131404)
(-0.2341949 0.1505079 -0.131404)
(-0.2228611 0.1668317 -0.131404)
(-0.2103916 0.1823054 -0.131404)
(-0.19685 0.19685 -0.131404)
(-0.1505079 0.2341949 -0.131404)
(-0.1334172 0.2443353 -0.131404)
(-0.1156466 0.2532306 -0.131404)
(-0.09728663 0.2608356 -0.131404)
(-0.2443353 0.1334172 -0.131404)
(0.19685 0.19685 -0.131404)
(0.2103916 0.1823054 -0.131404)
(0.1668317 0.2228611 -0.131404)
(-0.1823054 0.2103916 -0.131404)
(-0.1668317 0.2228611 -0.131404)
(0.1823054 0.2103916 -0.131404)
(-0.1668317 -0.2228611 -0.131404)
(-0.01985997 -0.2776787 -0.131404)
(0.07843097 -0.2671113 -0.131404)
(-8.326616e-17 -0.278388 -0.131404)
(0.1823054 -0.2103916 -0.131404)
(0.1668317 -0.2228611 -0.131404)
(-0.1823054 -0.2103916 -0.131404)
(0.01985997 -0.2776787 -0.131404)
(0.03961874 -0.2755544 -0.131404)
(0.05917563 -0.272026 -0.131404)
(-0.02740612 0.03436618 -0.0014896)
(-0.009781131 0.04285393 -0.0014896)
(-0.03960299 0.01907179 -0.0014896)
(-0.043956 3.469447e-17 -0.0014896)
(0.009781131 0.04285393 -0.0014896)
(-0.02740612 -0.03436618 -0.0014896)
(-0.03960299 -0.01907179 -0.0014896)
(0.02740612 0.03436618 -0.0014896)
(0.03960299 0.01907179 -0.0014896)
(0.043956 -2.785442e-17 -0.0014896)
(0.03960299 -0.01907179 -0.0014896)
(0.02740612 -0.03436618 -0.0014896)
(0.009781131 -0.04285393 -0.0014896)
(-0.009781131 -0.04285393 -0.0014896)
(-0.03960299 0.01907179 -0.1187056)
(-0.02740612 0.03436618 -0.1187056)
(-0.043956 2.775558e-17 -0.1187056)
(-0.009781131 0.04285393 -0.1187056)
(0.009781131 0.04285393 -0.1187056)
(0.02740612 0.03436618 -0.1187056)
(0.03960299 0.01907179 -0.1187056)
(0.043956 1.477493e-17 -0.1187056)
(0.03960299 -0.01907179 -0.1187056)
(0.02740612 -0.03436618 -0.1187056)
(0.009781131 -0.04285393 -0.1187056)
(-0.009781131 -0.04285393 -0.1187056)
(-0.02740612 -0.03436618 -0.1187056)
(-0.03960299 -0.01907179 -0.1187056)
)


// edges:

204
(
(0 1)
(2 3)
(4 5)
(6 4)
(7 6)
(8 9)
(10 11)
(12 13)
(14 15)
(16 14)
(17 16)
(18 19)
(20 21)
(21 22)
(22 10)
(23 24)
(25 23)
(26 27)
(27 28)
(28 29)
(29 30)
(30 31)
(32 33)
(34 32)
(35 36)
(37 38)
(38 39)
(39 40)
(41 42)
(42 43)
(44 17)
(45 20)
(46 47)
(48 49)
(50 25)
(47 50)
(19 51)
(3 52)
(52 18)
(24 53)
(53 54)
(54 55)
(55 56)
(57 2)
(33 57)
(9 58)
(59 60)
(60 7)
(61 34)
(62 61)
(63 64)
(31 62)
(64 65)
(66 67)
(68 69)
(70 71)
(72 26)
(71 73)
(74 75)
(75 59)
(5 0)
(56 8)
(15 12)
(76 77)
(13 76)
(43 44)
(77 78)
(78 79)
(79 80)
(40 41)
(36 37)
(81 35)
(49 82)
(11 46)
(82 81)
(51 48)
(58 63)
(67 68)
(69 70)
(1 83)
(83 84)
(84 85)
(85 86)
(86 87)
(73 74)
(65 66)
(80 45)
(87 72)
(88 89)
(90 88)
(91 90)
(92 93)
(94 92)
(95 94)
(96 97)
(97 98)
(98 99)
(100 101)
(101 102)
(102 103)
(104 105)
(106 104)
(107 108)
(109 107)
(110 109)
(108 111)
(111 112)
(112 113)
(114 115)
(116 114)
(117 116)
(118 119)
(120 118)
(115 120)
(121 95)
(122 121)
(123 122)
(124 125)
(125 126)
(127 128)
(128 129)
(99 124)
(129 123)
(130 131)
(132 130)
(133 132)
(93 134)
(135 91)
(136 133)
(134 137)
(138 135)
(139 136)
(113 139)
(137 140)
(141 138)
(140 142)
(143 141)
(142 144)
(145 143)
(144 146)
(147 145)
(148 149)
(150 110)
(151 152)
(152 153)
(153 154)
(155 156)
(156 157)
(157 158)
(146 148)
(149 159)
(159 151)
(160 161)
(161 150)
(105 162)
(163 164)
(154 163)
(165 160)
(162 165)
(164 155)
(89 106)
(158 147)
(131 96)
(119 166)
(167 117)
(103 168)
(169 167)
(170 171)
(126 170)
(172 127)
(173 169)
(166 172)
(174 173)
(171 100)
(175 174)
(168 175)
(176 177)
(178 176)
(179 178)
(177 180)
(181 182)
(180 183)
(183 184)
(184 185)
(185 186)
(186 187)
(187 188)
(188 189)
(189 181)
(182 179)
(190 191)
(192 190)
(191 193)
(193 194)
(194 195)
(195 196)
(196 197)
(198 199)
(197 198)
(199 200)
(200 201)
(201 202)
(202 203)
(203 192)
)

// * * * * * * * * * * * * * * * * * * * * * * * * * * * * * * * * * * * * * //


// ************************************************************************* //
