/*--------------------------------*- C++ -*----------------------------------*\
| =========                 |                                                 |
| \\      /  F ield         | OpenFOAM: The Open Source CFD Toolbox           |
|  \\    /   O peration     | Version:  v2006                                 |
|   \\  /    A nd           | Website:  www.openfoam.com                      |
|    \\/     M anipulation  |                                                 |
\*---------------------------------------------------------------------------*/
FoamFile
{
    version     2.0;
    format      ascii;
    class       extendedFeatureEdgeMesh;
    location    "constant/extendedFeatureEdgeMesh";
    object      body.extendedFeatureEdgeMesh;
}
// * * * * * * * * * * * * * * * * * * * * * * * * * * * * * * * * * * * * * //

// points

172
(
(0.2991997003555298 0.02189859002828598 2)
(0.300000011920929 -7.347881115511007e-17 2)
(0.2991997003555298 0.02189859002828598 -2)
(0.2968029975891113 0.0436803512275219 -2)
(0.2968029975891113 0.0436803512275219 2)
(0.2928226888179779 0.06522905081510544 -2)
(0.2928226888179779 0.06522905081510544 2)
(0.2872802019119263 0.08642973005771637 -2)
(0.2872802019119263 0.08642973005771637 2)
(0.2802048027515411 0.1071693003177643 -2)
(0.2802048027515411 0.1071693003177643 2)
(0.2716344892978668 0.1273369938135147 -2)
(0.2716344892978668 0.1273369938135147 2)
(0.2616147994995117 0.1468254029750824 -2)
(0.2616147994995117 0.1468254029750824 2)
(0.2501992881298065 0.1655302941799164 -2)
(0.2501992881298065 0.1655302941799164 2)
(0.2374489009380341 0.1833520978689194 -2)
(0.2374489009380341 0.1833520978689194 2)
(0.2234317064285278 0.2001955956220627 -2)
(0.2234317064285278 0.2001955956220627 2)
(0.2082222998142242 0.2159709930419922 -2)
(0.2082222998142242 0.2159709930419922 2)
(0.191901907324791 0.2305940985679626 -2)
(0.191901907324791 0.2305940985679626 2)
(0.174557700753212 0.2439869046211243 -2)
(0.174557700753212 0.2439869046211243 2)
(0.1562820971012115 0.2560778856277466 -2)
(0.1562820971012115 0.2560778856277466 2)
(0.1371726989746094 0.2668026089668274 -2)
(0.1371726989746094 0.2668026089668274 2)
(0.117331400513649 0.2761039137840271 -2)
(0.117331400513649 0.2761039137840271 2)
(0.09686411917209625 0.2839319109916687 -2)
(0.09686411917209625 0.2839319109916687 2)
(0.0758800134062767 0.2902450859546661 -2)
(0.0758800134062767 0.2902450859546661 2)
(0.05449105054140091 0.2950097024440765 -2)
(0.05449105054140091 0.2950097024440765 2)
(0.03281135857105255 0.2982003092765808 -2)
(0.03281135857105255 0.2982003092765808 2)
(0.01095660962164402 0.2997998893260956 -2)
(0.01095660962164402 0.2997998893260956 2)
(-0.01095660962164402 0.2997998893260956 -2)
(-0.01095660962164402 0.2997998893260956 2)
(-0.03281135857105255 0.2982003092765808 -2)
(-0.03281135857105255 0.2982003092765808 2)
(-0.05449105054140091 0.2950097024440765 -2)
(-0.05449105054140091 0.2950097024440765 2)
(-0.0758800134062767 0.2902450859546661 -2)
(-0.0758800134062767 0.2902450859546661 2)
(-0.09686411917209625 0.2839319109916687 -2)
(-0.09686411917209625 0.2839319109916687 2)
(-0.117331400513649 0.2761039137840271 -2)
(-0.117331400513649 0.2761039137840271 2)
(-0.1371726989746094 0.2668026089668274 -2)
(-0.1371726989746094 0.2668026089668274 2)
(-0.1562820971012115 0.2560778856277466 -2)
(-0.1562820971012115 0.2560778856277466 2)
(-0.174557700753212 0.2439869046211243 -2)
(-0.174557700753212 0.2439869046211243 2)
(-0.191901907324791 0.2305940985679626 -2)
(-0.191901907324791 0.2305940985679626 2)
(-0.2082222998142242 0.2159709930419922 -2)
(-0.2082222998142242 0.2159709930419922 2)
(-0.2234317064285278 0.2001955956220627 -2)
(-0.2234317064285278 0.2001955956220627 2)
(-0.2374489009380341 0.1833520978689194 -2)
(-0.2374489009380341 0.1833520978689194 2)
(-0.2501992881298065 0.1655302941799164 -2)
(-0.2501992881298065 0.1655302941799164 2)
(-0.2616147994995117 0.1468254029750824 -2)
(-0.2616147994995117 0.1468254029750824 2)
(-0.2716344892978668 0.1273369938135147 -2)
(-0.2716344892978668 0.1273369938135147 2)
(-0.2802048027515411 0.1071693003177643 -2)
(-0.2802048027515411 0.1071693003177643 2)
(-0.2872802019119263 0.08642973005771637 -2)
(-0.2872802019119263 0.08642973005771637 2)
(-0.2928226888179779 0.06522905081510544 -2)
(-0.2928226888179779 0.06522905081510544 2)
(-0.2968029975891113 0.0436803512275219 -2)
(-0.2968029975891113 0.0436803512275219 2)
(-0.2991997003555298 0.02189859002828598 -2)
(-0.2991997003555298 0.02189859002828598 2)
(-0.300000011920929 3.673940888627749e-17 -2)
(-0.300000011920929 3.673940888627749e-17 2)
(-0.2991997003555298 -0.02189859002828598 -2)
(-0.2991997003555298 -0.02189859002828598 2)
(-0.2968029975891113 -0.0436803512275219 -2)
(-0.2968029975891113 -0.0436803512275219 2)
(-0.2928226888179779 -0.06522905081510544 -2)
(-0.2928226888179779 -0.06522905081510544 2)
(-0.2872802019119263 -0.08642973005771637 -2)
(-0.2872802019119263 -0.08642973005771637 2)
(-0.2802048027515411 -0.1071693003177643 -2)
(-0.2802048027515411 -0.1071693003177643 2)
(-0.2716344892978668 -0.1273369938135147 -2)
(-0.2716344892978668 -0.1273369938135147 2)
(-0.2616147994995117 -0.1468254029750824 -2)
(-0.2616147994995117 -0.1468254029750824 2)
(-0.2501992881298065 -0.1655302941799164 -2)
(-0.2501992881298065 -0.1655302941799164 2)
(-0.2374489009380341 -0.1833520978689194 -2)
(-0.2374489009380341 -0.1833520978689194 2)
(-0.2234317064285278 -0.2001955956220627 -2)
(-0.2234317064285278 -0.2001955956220627 2)
(-0.2082222998142242 -0.2159709930419922 -2)
(-0.2082222998142242 -0.2159709930419922 2)
(-0.191901907324791 -0.2305940985679626 -2)
(-0.191901907324791 -0.2305940985679626 2)
(-0.174557700753212 -0.2439869046211243 -2)
(-0.174557700753212 -0.2439869046211243 2)
(-0.1562820971012115 -0.2560778856277466 -2)
(-0.1562820971012115 -0.2560778856277466 2)
(-0.1371726989746094 -0.2668026089668274 -2)
(-0.1371726989746094 -0.2668026089668274 2)
(-0.117331400513649 -0.2761039137840271 -2)
(-0.117331400513649 -0.2761039137840271 2)
(-0.09686411917209625 -0.2839319109916687 -2)
(-0.09686411917209625 -0.2839319109916687 2)
(-0.0758800134062767 -0.2902450859546661 -2)
(-0.0758800134062767 -0.2902450859546661 2)
(-0.05449105054140091 -0.2950097024440765 -2)
(-0.05449105054140091 -0.2950097024440765 2)
(-0.03281135857105255 -0.2982003092765808 -2)
(-0.03281135857105255 -0.2982003092765808 2)
(-0.01095660962164402 -0.2997998893260956 -2)
(-0.01095660962164402 -0.2997998893260956 2)
(0.01095660962164402 -0.2997998893260956 -2)
(0.01095660962164402 -0.2997998893260956 2)
(0.03281135857105255 -0.2982003092765808 -2)
(0.03281135857105255 -0.2982003092765808 2)
(0.05449105054140091 -0.2950097024440765 -2)
(0.05449105054140091 -0.2950097024440765 2)
(0.0758800134062767 -0.2902450859546661 -2)
(0.0758800134062767 -0.2902450859546661 2)
(0.09686411917209625 -0.2839319109916687 -2)
(0.09686411917209625 -0.2839319109916687 2)
(0.117331400513649 -0.2761039137840271 -2)
(0.117331400513649 -0.2761039137840271 2)
(0.1371726989746094 -0.2668026089668274 -2)
(0.1371726989746094 -0.2668026089668274 2)
(0.1562820971012115 -0.2560778856277466 -2)
(0.1562820971012115 -0.2560778856277466 2)
(0.174557700753212 -0.2439869046211243 -2)
(0.174557700753212 -0.2439869046211243 2)
(0.191901907324791 -0.2305940985679626 -2)
(0.191901907324791 -0.2305940985679626 2)
(0.2082222998142242 -0.2159709930419922 -2)
(0.2082222998142242 -0.2159709930419922 2)
(0.2234317064285278 -0.2001955956220627 -2)
(0.2234317064285278 -0.2001955956220627 2)
(0.2374489009380341 -0.1833520978689194 -2)
(0.2374489009380341 -0.1833520978689194 2)
(0.2501992881298065 -0.1655302941799164 -2)
(0.2501992881298065 -0.1655302941799164 2)
(0.2616147994995117 -0.1468254029750824 -2)
(0.2616147994995117 -0.1468254029750824 2)
(0.2716344892978668 -0.1273369938135147 -2)
(0.2716344892978668 -0.1273369938135147 2)
(0.2802048027515411 -0.1071693003177643 -2)
(0.2802048027515411 -0.1071693003177643 2)
(0.2872802019119263 -0.08642973005771637 -2)
(0.2872802019119263 -0.08642973005771637 2)
(0.2928226888179779 -0.06522905081510544 -2)
(0.2928226888179779 -0.06522905081510544 2)
(0.2968029975891113 -0.0436803512275219 -2)
(0.2968029975891113 -0.0436803512275219 2)
(0.2991997003555298 -0.02189859002828598 -2)
(0.2991997003555298 -0.02189859002828598 2)
(0.300000011920929 0 -2)
)

// edges

172
(
(0 1)
(2 3)
(4 0)
(3 5)
(6 4)
(5 7)
(8 6)
(7 9)
(10 8)
(9 11)
(12 10)
(11 13)
(14 12)
(13 15)
(16 14)
(15 17)
(18 16)
(17 19)
(20 18)
(19 21)
(22 20)
(21 23)
(24 22)
(23 25)
(26 24)
(25 27)
(28 26)
(27 29)
(30 28)
(29 31)
(32 30)
(31 33)
(34 32)
(33 35)
(36 34)
(35 37)
(38 36)
(37 39)
(40 38)
(39 41)
(42 40)
(41 43)
(44 42)
(43 45)
(46 44)
(45 47)
(48 46)
(47 49)
(50 48)
(49 51)
(52 50)
(51 53)
(54 52)
(53 55)
(56 54)
(55 57)
(58 56)
(57 59)
(60 58)
(59 61)
(62 60)
(61 63)
(64 62)
(63 65)
(66 64)
(65 67)
(68 66)
(67 69)
(70 68)
(69 71)
(72 70)
(71 73)
(74 72)
(73 75)
(76 74)
(75 77)
(78 76)
(77 79)
(80 78)
(79 81)
(82 80)
(81 83)
(84 82)
(83 85)
(86 84)
(85 87)
(88 86)
(87 89)
(90 88)
(89 91)
(92 90)
(91 93)
(94 92)
(93 95)
(96 94)
(95 97)
(98 96)
(97 99)
(100 98)
(99 101)
(102 100)
(101 103)
(104 102)
(103 105)
(106 104)
(105 107)
(108 106)
(107 109)
(110 108)
(109 111)
(112 110)
(111 113)
(114 112)
(113 115)
(116 114)
(115 117)
(118 116)
(117 119)
(120 118)
(119 121)
(122 120)
(121 123)
(124 122)
(123 125)
(126 124)
(125 127)
(128 126)
(127 129)
(130 128)
(129 131)
(132 130)
(131 133)
(134 132)
(133 135)
(136 134)
(135 137)
(138 136)
(137 139)
(140 138)
(139 141)
(142 140)
(141 143)
(144 142)
(143 145)
(146 144)
(145 147)
(148 146)
(147 149)
(150 148)
(149 151)
(152 150)
(151 153)
(154 152)
(153 155)
(156 154)
(155 157)
(158 156)
(157 159)
(160 158)
(159 161)
(162 160)
(161 163)
(164 162)
(163 165)
(166 164)
(165 167)
(168 166)
(167 169)
(170 168)
(169 171)
(1 170)
(171 2)
)

// concaveStart mixedStart nonFeatureStart
0 0 0
// internalStart flatStart openStart multipleStart
172 172 172 172
// normals

344
(
(0.9993328536597456 0.03652187832340761 0)
(0 0 1)
(0.9940008387612718 0.109372448733162 0)
(0 0 -1)
(0.9940008387612718 0.109372448733162 0)
(0 0 1)
(0.9833651704315406 0.1816395925511484 0)
(0 0 -1)
(0.9833651704315406 0.1816395925511484 0)
(0 0 1)
(0.9674847795874645 0.2529292416202508 0)
(0 -0 -1)
(0.9674847795874645 0.2529292416202508 0)
(0 0 1)
(0.9464392082952727 0.3228820605134598 0)
(0 0 -1)
(0.9464392082952727 0.3228820605134598 0)
(0 0 1)
(0.9203466270633688 0.391103676859577 0)
(0 0 -1)
(0.9203466270633688 0.391103676859577 0)
(0 0 1)
(0.8893420033660592 0.4572426063358975 0)
(0 -0 -1)
(0.8893420033660592 0.4572426063358975 0)
(0 0 1)
(0.8535914434709984 0.5209430368409748 0)
(0 0 -1)
(0.8535914434709984 0.5209430368409748 0)
(0 0 1)
(0.8132901728646813 0.5818583115516498 0)
(0 0 -1)
(0.8132901728646813 0.5818583115516498 0)
(0 0 1)
(0.7686487346122103 0.6396711051619012 0)
(0 -0 -1)
(0.7686487346122103 0.6396711051619012 0)
(0 0 1)
(0.7199032081128661 0.6940744707513764 0)
(0 0 -1)
(0.7199032081128661 0.6940744707513764 0)
(0 0 1)
(0.6673180399256144 0.7447728738278779 0)
(0 0 -1)
(0.6673180399256144 0.7447728738278779 0)
(0 0 1)
(0.6111750076433835 0.7914954895841859 0)
(0 -0 -1)
(0.6111750076433835 0.7914954895841859 0)
(0 0 1)
(0.5517663416176296 0.8339987435589441 0)
(0 0 -1)
(0.5517663416176296 0.8339987435589441 0)
(0 0 1)
(0.4894181715986067 0.8720492264253646 0)
(0 0 -1)
(0.4894181715986067 0.8720492264253646 0)
(0 0 1)
(0.4244599220924268 0.9054467265042659 0)
(0 -0 -1)
(0.4244599220924268 0.9054467265042659 0)
(0 0 1)
(0.3572279217374304 0.9340172439153124 0)
(0 0 -1)
(0.3572279217374304 0.9340172439153124 0)
(0 0 1)
(0.2880990189479982 0.9576006241023453 0)
(0 0 -1)
(0.2880990189479982 0.9576006241023453 0)
(0 0 1)
(0.2174311230020363 0.9760756665085312 0)
(0 -0 -1)
(0.2174311230020363 0.9760756665085312 0)
(0 0 1)
(0.1456019462197286 0.9893432535055906 0)
(0 0 -1)
(0.1456019462197286 0.9893432535055906 0)
(0 0 1)
(0.07299615880057378 0.9973322218801323 0)
(0 0 -1)
(0.07299615880057378 0.9973322218801323 0)
(0 0 1)
(0 1 0)
(0 0 -1)
(0 1 0)
(0 -0 1)
(-0.07299615880057378 0.9973322218801323 0)
(0 0 -1)
(-0.07299615880057378 0.9973322218801323 0)
(0 0 1)
(-0.1456019462197286 0.9893432535055906 0)
(0 0 -1)
(-0.1456019462197286 0.9893432535055906 0)
(0 0 1)
(-0.2174311230020363 0.9760756665085312 0)
(0 0 -1)
(-0.2174311230020363 0.9760756665085312 0)
(0 0 1)
(-0.2880990189479982 0.9576006241023453 0)
(0 0 -1)
(-0.2880990189479982 0.9576006241023453 0)
(0 0 1)
(-0.3572279217374304 0.9340172439153124 0)
(0 0 -1)
(-0.3572279217374304 0.9340172439153124 0)
(0 0 1)
(-0.4244599220924268 0.9054467265042659 0)
(0 0 -1)
(-0.4244599220924268 0.9054467265042659 0)
(0 0 1)
(-0.4894181715986067 0.8720492264253646 0)
(0 0 -1)
(-0.4894181715986067 0.8720492264253646 0)
(0 0 1)
(-0.5517663416176296 0.8339987435589441 0)
(0 0 -1)
(-0.5517663416176296 0.8339987435589441 0)
(0 0 1)
(-0.6111750076433835 0.7914954895841859 0)
(0 0 -1)
(-0.6111750076433835 0.7914954895841859 0)
(0 0 1)
(-0.6673180399256144 0.7447728738278779 0)
(0 0 -1)
(-0.6673180399256144 0.7447728738278779 0)
(0 0 1)
(-0.7199032081128661 0.6940744707513764 0)
(0 0 -1)
(-0.7199032081128661 0.6940744707513764 0)
(0 0 1)
(-0.7686487346122103 0.6396711051619012 0)
(0 0 -1)
(-0.7686487346122103 0.6396711051619012 0)
(0 0 1)
(-0.8132901728646813 0.5818583115516498 0)
(0 0 -1)
(-0.8132901728646813 0.5818583115516498 0)
(0 0 1)
(-0.8535914434709984 0.5209430368409748 0)
(0 0 -1)
(-0.8535914434709984 0.5209430368409748 0)
(0 0 1)
(-0.8893420033660592 0.4572426063358975 0)
(0 0 -1)
(-0.8893420033660592 0.4572426063358975 0)
(0 0 1)
(-0.9203466270633688 0.391103676859577 0)
(0 0 -1)
(-0.9203466270633688 0.391103676859577 0)
(0 0 1)
(-0.9464392082952727 0.3228820605134598 0)
(0 0 -1)
(-0.9464392082952727 0.3228820605134598 0)
(0 0 1)
(-0.9674847795874645 0.2529292416202508 0)
(0 0 -1)
(-0.9674847795874645 0.2529292416202508 0)
(0 0 1)
(-0.9833651704315406 0.1816395925511484 0)
(0 0 -1)
(-0.9833651704315406 0.1816395925511484 0)
(0 0 1)
(-0.9940008387612718 0.109372448733162 0)
(0 0 -1)
(-0.9940008387612718 0.109372448733162 0)
(0 0 1)
(-0.9993328536597456 0.0365218783234078 0)
(0 0 -1)
(-0.9993328536597456 0.0365218783234078 0)
(0 0 1)
(-0.9993328536597456 -0.03652187832340767 -0)
(-0 0 -1)
(-0.9993328536597456 -0.03652187832340767 0)
(0 0 1)
(-0.9940008387612718 -0.109372448733162 -0)
(0 0 -1)
(-0.9940008387612718 -0.109372448733162 0)
(0 0 1)
(-0.9833651704315406 -0.1816395925511484 -0)
(0 0 -1)
(-0.9833651704315406 -0.1816395925511484 0)
(0 0 1)
(-0.9674847795874645 -0.2529292416202508 -0)
(0 0 -1)
(-0.9674847795874645 -0.2529292416202508 0)
(-0 0 1)
(-0.9464392082952727 -0.3228820605134598 -0)
(0 0 -1)
(-0.9464392082952727 -0.3228820605134598 0)
(0 0 1)
(-0.9203466270633688 -0.391103676859577 -0)
(0 0 -1)
(-0.9203466270633688 -0.391103676859577 0)
(0 0 1)
(-0.8893420033660592 -0.4572426063358975 -0)
(0 0 -1)
(-0.8893420033660592 -0.4572426063358975 0)
(-0 0 1)
(-0.8535914434709984 -0.5209430368409748 -0)
(0 0 -1)
(-0.8535914434709984 -0.5209430368409748 0)
(0 0 1)
(-0.8132901728646813 -0.5818583115516498 -0)
(0 0 -1)
(-0.8132901728646813 -0.5818583115516498 0)
(0 0 1)
(-0.7686487346122103 -0.6396711051619012 -0)
(0 0 -1)
(-0.7686487346122103 -0.6396711051619012 0)
(-0 0 1)
(-0.7199032081128661 -0.6940744707513764 -0)
(0 0 -1)
(-0.7199032081128661 -0.6940744707513764 0)
(0 0 1)
(-0.6673180399256144 -0.7447728738278779 -0)
(0 0 -1)
(-0.6673180399256144 -0.7447728738278779 0)
(0 0 1)
(-0.6111750076433835 -0.7914954895841859 -0)
(0 0 -1)
(-0.6111750076433835 -0.7914954895841859 0)
(-0 0 1)
(-0.5517663416176296 -0.8339987435589441 -0)
(0 0 -1)
(-0.5517663416176296 -0.8339987435589441 0)
(0 0 1)
(-0.4894181715986067 -0.8720492264253646 -0)
(0 0 -1)
(-0.4894181715986067 -0.8720492264253646 0)
(0 0 1)
(-0.4244599220924268 -0.9054467265042659 -0)
(0 0 -1)
(-0.4244599220924268 -0.9054467265042659 0)
(-0 0 1)
(-0.3572279217374304 -0.9340172439153124 -0)
(0 0 -1)
(-0.3572279217374304 -0.9340172439153124 0)
(0 0 1)
(-0.2880990189479982 -0.9576006241023453 -0)
(0 0 -1)
(-0.2880990189479982 -0.9576006241023453 0)
(0 0 1)
(-0.2174311230020363 -0.9760756665085312 -0)
(0 0 -1)
(-0.2174311230020363 -0.9760756665085312 0)
(-0 0 1)
(-0.1456019462197286 -0.9893432535055906 -0)
(0 0 -1)
(-0.1456019462197286 -0.9893432535055906 0)
(0 0 1)
(-0.07299615880057378 -0.9973322218801323 -0)
(0 0 -1)
(-0.07299615880057378 -0.9973322218801323 0)
(0 0 1)
(0 -1 0)
(0 -0 -1)
(0 -1 0)
(0 0 1)
(0.07299615880057378 -0.9973322218801323 0)
(0 0 -1)
(0.07299615880057378 -0.9973322218801323 0)
(0 0 1)
(0.1456019462197286 -0.9893432535055906 0)
(-0 0 -1)
(0.1456019462197286 -0.9893432535055906 0)
(0 0 1)
(0.2174311230020363 -0.9760756665085312 0)
(0 0 -1)
(0.2174311230020363 -0.9760756665085312 0)
(0 -0 1)
(0.2880990189479982 -0.9576006241023453 0)
(0 0 -1)
(0.2880990189479982 -0.9576006241023453 0)
(0 0 1)
(0.3572279217374304 -0.9340172439153124 0)
(-0 0 -1)
(0.3572279217374304 -0.9340172439153124 0)
(0 0 1)
(0.4244599220924268 -0.9054467265042659 0)
(0 0 -1)
(0.4244599220924268 -0.9054467265042659 0)
(0 -0 1)
(0.4894181715986067 -0.8720492264253646 0)
(0 0 -1)
(0.4894181715986067 -0.8720492264253646 0)
(0 0 1)
(0.5517663416176296 -0.8339987435589441 0)
(-0 0 -1)
(0.5517663416176296 -0.8339987435589441 0)
(0 0 1)
(0.6111750076433835 -0.7914954895841859 0)
(0 0 -1)
(0.6111750076433835 -0.7914954895841859 0)
(0 -0 1)
(0.6673180399256144 -0.7447728738278779 0)
(0 0 -1)
(0.6673180399256144 -0.7447728738278779 0)
(0 0 1)
(0.7199032081128661 -0.6940744707513764 0)
(-0 0 -1)
(0.7199032081128661 -0.6940744707513764 0)
(0 0 1)
(0.7686487346122103 -0.6396711051619012 0)
(0 0 -1)
(0.7686487346122103 -0.6396711051619012 0)
(0 -0 1)
(0.8132901728646813 -0.5818583115516498 0)
(0 0 -1)
(0.8132901728646813 -0.5818583115516498 0)
(0 0 1)
(0.8535914434709984 -0.5209430368409748 0)
(-0 0 -1)
(0.8535914434709984 -0.5209430368409748 0)
(0 0 1)
(0.8893420033660592 -0.4572426063358975 0)
(0 0 -1)
(0.8893420033660592 -0.4572426063358975 0)
(0 -0 1)
(0.9203466270633688 -0.391103676859577 0)
(0 0 -1)
(0.9203466270633688 -0.391103676859577 0)
(0 0 1)
(0.9464392082952727 -0.3228820605134598 0)
(-0 0 -1)
(0.9464392082952727 -0.3228820605134598 0)
(0 0 1)
(0.9674847795874645 -0.2529292416202508 0)
(0 0 -1)
(0.9674847795874645 -0.2529292416202508 0)
(0 -0 1)
(0.9833651704315406 -0.1816395925511484 0)
(0 0 -1)
(0.9833651704315406 -0.1816395925511484 0)
(0 0 1)
(0.9940008387612718 -0.109372448733162 0)
(-0 0 -1)
(0.9940008387612718 -0.109372448733162 0)
(0 0 1)
(0.9993328536597456 -0.03652187832340773 0)
(-0 0 -1)
(0.9993328536597456 -0.03652187832340786 -6.571178085398067e-19)
(0 0 1)
(0.9993328536597456 0.03652187832340773 6.708960500888963e-19)
(0 0 -1)
)

// normal volume types

344
(
0
0
0
0
0
0
0
0
0
0
0
0
0
0
0
0
0
0
0
0
0
0
0
0
0
0
0
0
0
0
0
0
0
0
0
0
0
0
0
0
0
0
0
0
0
0
0
0
0
0
0
0
0
0
0
0
0
0
0
0
0
0
0
0
0
0
0
0
0
0
0
0
0
0
0
0
0
0
0
0
0
0
0
0
0
0
0
0
0
0
0
0
0
0
0
0
0
0
0
0
0
0
0
0
0
0
0
0
0
0
0
0
0
0
0
0
0
0
0
0
0
0
0
0
0
0
0
0
0
0
0
0
0
0
0
0
0
0
0
0
0
0
0
0
0
0
0
0
0
0
0
0
0
0
0
0
0
0
0
0
0
0
0
0
0
0
0
0
0
0
0
0
0
0
0
0
0
0
0
0
0
0
0
0
0
0
0
0
0
0
0
0
0
0
0
0
0
0
0
0
0
0
0
0
0
0
0
0
0
0
0
0
0
0
0
0
0
0
0
0
0
0
0
0
0
0
0
0
0
0
0
0
0
0
0
0
0
0
0
0
0
0
0
0
0
0
0
0
0
0
0
0
0
0
0
0
0
0
0
0
0
0
0
0
0
0
0
0
0
0
0
0
0
0
0
0
0
0
0
0
0
0
0
0
0
0
0
0
0
0
0
0
0
0
0
0
0
0
0
0
0
0
0
0
0
0
0
0
0
0
0
0
0
0
0
0
0
0
0
0
0
0
0
0
0
0
0
0
0
0
0
0
0
0
0
0
0
0
0
0
0
0
0
0
)

// normalDirections

172
(
2(1 -1)
2(1 -1)
2(1 -1)
2(1 -1)
2(1 -1)
2(1 -1)
2(1 -1)
2(1 -1)
2(1 -1)
2(1 -1)
2(1 -1)
2(1 -1)
2(1 -1)
2(1 -1)
2(1 -1)
2(1 -1)
2(1 -1)
2(1 -1)
2(1 -1)
2(1 -1)
2(1 -1)
2(1 -1)
2(1 -1)
2(1 -1)
2(1 -1)
2(1 -1)
2(1 -1)
2(1 -1)
2(1 -1)
2(1 -1)
2(1 -1)
2(1 -1)
2(1 -1)
2(1 -1)
2(1 -1)
2(1 -1)
2(1 -1)
2(1 -1)
2(1 -1)
2(1 -1)
2(1 -1)
2(1 -1)
2(1 -1)
2(1 -1)
2(1 -1)
2(1 -1)
2(1 -1)
2(1 -1)
2(1 -1)
2(1 -1)
2(1 -1)
2(1 -1)
2(1 -1)
2(1 -1)
2(1 -1)
2(1 -1)
2(1 -1)
2(1 -1)
2(1 -1)
2(1 -1)
2(1 -1)
2(1 -1)
2(1 -1)
2(1 -1)
2(1 -1)
2(1 -1)
2(1 -1)
2(1 -1)
2(1 -1)
2(1 -1)
2(1 -1)
2(1 -1)
2(1 -1)
2(1 -1)
2(1 -1)
2(1 -1)
2(1 -1)
2(1 -1)
2(1 -1)
2(1 -1)
2(1 -1)
2(1 -1)
2(1 -1)
2(1 -1)
2(1 -1)
2(1 -1)
2(1 -1)
2(1 -1)
2(1 -1)
2(1 -1)
2(1 -1)
2(1 -1)
2(1 -1)
2(1 -1)
2(1 -1)
2(1 -1)
2(1 -1)
2(1 -1)
2(1 -1)
2(1 -1)
2(1 -1)
2(1 -1)
2(1 -1)
2(1 -1)
2(1 -1)
2(1 -1)
2(1 -1)
2(1 -1)
2(1 -1)
2(1 -1)
2(1 -1)
2(1 -1)
2(1 -1)
2(1 -1)
2(1 -1)
2(1 -1)
2(1 -1)
2(1 -1)
2(1 -1)
2(1 -1)
2(1 -1)
2(1 -1)
2(1 -1)
2(1 -1)
2(1 -1)
2(1 -1)
2(1 -1)
2(1 -1)
2(1 -1)
2(1 -1)
2(1 -1)
2(1 -1)
2(1 -1)
2(1 -1)
2(1 -1)
2(1 -1)
2(1 -1)
2(1 -1)
2(1 -1)
2(1 -1)
2(1 -1)
2(1 -1)
2(1 -1)
2(1 -1)
2(1 -1)
2(1 -1)
2(1 -1)
2(1 -1)
2(1 -1)
2(1 -1)
2(1 -1)
2(1 -1)
2(1 -1)
2(1 -1)
2(1 -1)
2(1 -1)
2(1 -1)
2(1 -1)
2(1 -1)
2(1 -1)
2(1 -1)
2(1 -1)
2(1 -1)
2(1 -1)
2(1 -1)
2(1 -1)
2(1 -1)
2(1 -1)
2(1 -1)
2(1 -1)
2(1 -1)
2(1 -1)
)

// edgeNormals

172
(
2(0 1)
2(2 3)
2(4 5)
2(6 7)
2(8 9)
2(10 11)
2(12 13)
2(14 15)
2(16 17)
2(18 19)
2(20 21)
2(22 23)
2(24 25)
2(26 27)
2(28 29)
2(30 31)
2(32 33)
2(34 35)
2(36 37)
2(38 39)
2(40 41)
2(42 43)
2(44 45)
2(46 47)
2(48 49)
2(50 51)
2(52 53)
2(54 55)
2(56 57)
2(58 59)
2(60 61)
2(62 63)
2(64 65)
2(66 67)
2(68 69)
2(70 71)
2(72 73)
2(74 75)
2(76 77)
2(78 79)
2(80 81)
2(82 83)
2(84 85)
2(86 87)
2(88 89)
2(90 91)
2(92 93)
2(94 95)
2(96 97)
2(98 99)
2(100 101)
2(102 103)
2(104 105)
2(106 107)
2(108 109)
2(110 111)
2(112 113)
2(114 115)
2(116 117)
2(118 119)
2(120 121)
2(122 123)
2(124 125)
2(126 127)
2(128 129)
2(130 131)
2(132 133)
2(134 135)
2(136 137)
2(138 139)
2(140 141)
2(142 143)
2(144 145)
2(146 147)
2(148 149)
2(150 151)
2(152 153)
2(154 155)
2(156 157)
2(158 159)
2(160 161)
2(162 163)
2(164 165)
2(166 167)
2(168 169)
2(170 171)
2(172 173)
2(174 175)
2(176 177)
2(178 179)
2(180 181)
2(182 183)
2(184 185)
2(186 187)
2(188 189)
2(190 191)
2(192 193)
2(194 195)
2(196 197)
2(198 199)
2(200 201)
2(202 203)
2(204 205)
2(206 207)
2(208 209)
2(210 211)
2(212 213)
2(214 215)
2(216 217)
2(218 219)
2(220 221)
2(222 223)
2(224 225)
2(226 227)
2(228 229)
2(230 231)
2(232 233)
2(234 235)
2(236 237)
2(238 239)
2(240 241)
2(242 243)
2(244 245)
2(246 247)
2(248 249)
2(250 251)
2(252 253)
2(254 255)
2(256 257)
2(258 259)
2(260 261)
2(262 263)
2(264 265)
2(266 267)
2(268 269)
2(270 271)
2(272 273)
2(274 275)
2(276 277)
2(278 279)
2(280 281)
2(282 283)
2(284 285)
2(286 287)
2(288 289)
2(290 291)
2(292 293)
2(294 295)
2(296 297)
2(298 299)
2(300 301)
2(302 303)
2(304 305)
2(306 307)
2(308 309)
2(310 311)
2(312 313)
2(314 315)
2(316 317)
2(318 319)
2(320 321)
2(322 323)
2(324 325)
2(326 327)
2(328 329)
2(330 331)
2(332 333)
2(334 335)
2(336 337)
2(338 339)
2(340 341)
2(342 343)
)

// featurePointNormals
0()
// featurePointEdges
0()
// regionEdges
0()


// ************************************************************************* //
