/*--------------------------------*- C++ -*----------------------------------*\
  =========                 |
  \\      /  F ield         | OpenFOAM: The Open Source CFD Toolbox
   \\    /   O peration     | Website:  https://openfoam.org
    \\  /    A nd           | Version:  8
     \\/     M anipulation  |
\*---------------------------------------------------------------------------*/
FoamFile
{
    version     2.0;
    format      ascii;
    class       featureEdgeMesh;
    location    "constant/triSurface";
    object      vessel.eMesh;
}
// * * * * * * * * * * * * * * * * * * * * * * * * * * * * * * * * * * * * * //


// points:

459
(
(-0.02435592 -0.050001491 0.19851141)
(-0.030804479 -0.050001491 0.19761349)
(-0.049927149 -0.050001491 0.19366799)
(-0.068573959 -0.050001491 0.1878766)
(-0.086567178 -0.050001491 0.1802945)
(-0.092389829 -0.050001491 0.17738131)
(-0.1092461 -0.050001491 0.1675269)
(-0.1250612 -0.050001491 0.15607589)
(-0.1300752 -0.050001491 0.15192249)
(-0.14426941 -0.050001491 0.1385148)
(-0.15708859 -0.050001491 0.1237868)
(-0.16841049 -0.050001491 0.1078791)
(-0.1718327 -0.050001491 0.1023402)
(-0.1809931 -0.050001491 0.08509694)
(-0.18842851 -0.050001491 0.067042597)
(-0.19051079 -0.050001491 0.06087381)
(-0.1955388 -0.050001491 0.04200682)
(-0.1987031 -0.050001491 0.022739479)
(-0.19997349 -0.050001491 0.0032553929)
(-0.19997349 -0.050001491 -0.0032553929)
(-0.1987031 -0.050001491 -0.022739479)
(-0.1955388 -0.050001491 -0.04200682)
(-0.19051079 -0.050001491 -0.06087381)
(-0.18842851 -0.050001491 -0.067042597)
(-0.1809931 -0.050001491 -0.08509694)
(-0.1718327 -0.050001491 -0.1023402)
(-0.16841049 -0.050001491 -0.1078791)
(-0.15708859 -0.050001491 -0.1237868)
(-0.14426941 -0.050001491 -0.1385148)
(-0.1300752 -0.050001491 -0.15192249)
(-0.1250612 -0.050001491 -0.15607589)
(-0.1092461 -0.050001491 -0.1675269)
(-0.092389829 -0.050001491 -0.17738131)
(-0.086567178 -0.050001491 -0.1802945)
(-0.068573959 -0.050001491 -0.1878766)
(-0.049927149 -0.050001491 -0.19366799)
(-0.030804479 -0.050001491 -0.19761349)
(-0.02435592 -0.050001491 -0.19851141)
(-0.004882819 -0.050001491 -0.1999404)
(0.01463682 -0.050001491 -0.1994637)
(0.040413991 -0.050001491 -0.1958742)
(0.059321269 -0.050001491 -0.191)
(0.077663153 -0.050001491 -0.1843053)
(0.083621062 -0.050001491 -0.1816797)
(0.1009383 -0.050001491 -0.1726599)
(0.1172935 -0.050001491 -0.1619945)
(0.13253079 -0.050001491 -0.1497851)
(0.137336 -0.050001491 -0.145392)
(0.1508588 -0.050001491 -0.1313073)
(0.1629438 -0.050001491 -0.1159712)
(0.16663229 -0.050001491 -0.110606)
(0.17662349 -0.050001491 -0.093830429)
(0.1849312 -0.050001491 -0.076160572)
(0.1914764 -0.050001491 -0.057764798)
(0.1932552 -0.050001491 -0.05150171)
(0.19735619 -0.050001491 -0.032411791)
(0.1995762 -0.050001491 -0.01301295)
(0.1995762 -0.050001491 0.01301295)
(0.19735619 -0.050001491 0.032411791)
(0.1932552 -0.050001491 0.05150171)
(0.1914764 -0.050001491 0.057764798)
(0.1849312 -0.050001491 0.076160572)
(0.17662349 -0.050001491 0.093830429)
(0.16663229 -0.050001491 0.110606)
(0.1629438 -0.050001491 0.1159712)
(0.1508588 -0.050001491 0.1313073)
(0.137336 -0.050001491 0.145392)
(0.13253079 -0.050001491 0.1497851)
(0.1172935 -0.050001491 0.1619945)
(0.1009383 -0.050001491 0.1726599)
(0.083621062 -0.050001491 0.1816797)
(0.077663153 -0.050001491 0.1843053)
(0.059321269 -0.050001491 0.191)
(0.040413991 -0.050001491 0.1958742)
(0.01463682 -0.050001491 0.1994637)
(-0.004882819 -0.050001491 0.1999404)
(-0.018453671 -0.050000001 0.19914681)
(-0.017881541 -0.050001491 0.19919901)
(-0.0092366925 0.30000001 0.1997866)
(-0.018453671 0.30000001 0.19914681)
(-0.02763127 0.30000001 0.1980821)
(-0.02763127 -0.050000001 0.1980821)
(-0.036749899 0.30000001 0.1965946)
(-0.036749899 -0.050000001 0.1965946)
(-0.04579011 0.30000001 0.1946876)
(-0.0372204 -0.050001491 0.1965061)
(-0.056204509 -0.050001491 0.1919402)
(-0.054732598 -0.050000001 0.1923651)
(-0.054732598 0.30000001 0.1923651)
(-0.04579011 -0.050000001 0.1946876)
(-0.043596871 -0.050001491 0.1951904)
(-0.06355828 0.30000001 0.1896321)
(-0.072248332 0.30000001 0.1864944)
(-0.06355828 -0.050000001 0.1896321)
(-0.062422309 -0.050001491 0.1900091)
(-0.074652933 -0.050001491 0.185545)
(-0.072248332 -0.050000001 0.1864944)
(-0.080784202 -0.050000001 0.1829588)
(-0.080652788 -0.050001491 0.1830167)
(-0.080784202 0.30000001 0.1829588)
(-0.089147672 0.30000001 0.1790327)
(-0.089147672 -0.050000001 0.1790327)
(-0.097320899 0.30000001 0.1747245)
(-0.097320899 -0.050000001 0.1747245)
(-0.1052864 0.30000001 0.17004339)
(-0.098114572 -0.050001491 0.17428)
(-0.1130273 0.30000001 0.1649995)
(-0.1052864 -0.050000001 0.17004339)
(-0.1037353 -0.050001491 0.1709941)
(-0.1146412 -0.050001491 0.1638823)
(-0.1130273 -0.050000001 0.1649995)
(-0.1205269 -0.050000001 0.1596034)
(-0.1199148 -0.050001491 0.16006389)
(-0.1205269 0.30000001 0.1596034)
(-0.1277694 0.30000001 0.1538668)
(-0.1277694 -0.050000001 0.1538668)
(-0.1347391 0.30000001 0.1478018)
(-0.1347391 -0.050000001 0.1478018)
(-0.14142139 0.30000001 0.14142139)
(-0.13495129 -0.050001491 0.1476081)
(-0.1487015 -0.050001491 0.13374551)
(-0.1478018 -0.050000001 0.1347391)
(-0.1478018 0.30000001 0.1347391)
(-0.14142139 -0.050000001 0.14142139)
(-0.1396843 -0.050001491 0.14313731)
(-0.1538668 0.30000001 0.1277694)
(-0.1596034 0.30000001 0.1205269)
(-0.1538668 -0.050000001 0.1277694)
(-0.1529761 -0.050001491 0.1288344)
(-0.1610346 -0.050001491 0.1186081)
(-0.1596034 -0.050000001 0.1205269)
(-0.1649995 -0.050000001 0.1130273)
(-0.1648099 -0.050001491 0.1133036)
(-0.1649995 0.30000001 0.1130273)
(-0.17004339 0.30000001 0.1052864)
(-0.17004339 -0.050000001 0.1052864)
(-0.1747245 0.30000001 0.097320899)
(-0.1747245 -0.050000001 0.097320899)
(-0.1790327 0.30000001 0.089147672)
(-0.1750728 -0.050001491 0.09669289)
(-0.1829588 0.30000001 0.080784202)
(-0.1790327 -0.050000001 0.089147672)
(-0.1781273 -0.050001491 0.090943113)
(-0.18366709 -0.050001491 0.079160593)
(-0.1829588 -0.050000001 0.080784202)
(-0.1864944 -0.050000001 0.072248332)
(-0.18614639 -0.050001491 0.073140353)
(-0.1864944 0.30000001 0.072248332)
(-0.1896321 0.30000001 0.06355828)
(-0.1896321 -0.050000001 0.06355828)
(-0.1923651 0.30000001 0.054732598)
(-0.1923651 -0.050000001 0.054732598)
(-0.1946876 0.30000001 0.04579011)
(-0.19239131 -0.050001491 0.054640491)
(-0.1968025 -0.050001491 0.035619851)
(-0.1965946 -0.050000001 0.036749899)
(-0.1965946 0.30000001 0.036749899)
(-0.1946876 -0.050000001 0.04579011)
(-0.1940679 -0.050001491 0.04834928)
(-0.1980821 0.30000001 0.02763127)
(-0.19914681 0.30000001 0.018453671)
(-0.1980821 -0.050000001 0.02763127)
(-0.1978576 -0.050001491 0.029195139)
(-0.199338 -0.050001491 0.016259721)
(-0.19914681 -0.050000001 0.018453671)
(-0.1997866 -0.050000001 0.0092366925)
(-0.1997616 -0.050001491 0.0097627277)
(-0.1997866 0.30000001 0.0092366925)
(-0.2 0.30000001 -3.6739409e-17)
(-0.2 -0.050000001 -3.6636971e-17)
(-0.1997866 0.30000001 -0.0092366925)
(-0.1997866 -0.050000001 -0.0092366925)
(-0.1997616 -0.050001491 -0.0097627277)
(-0.19914681 0.30000001 -0.018453671)
(-0.1978576 -0.050001491 -0.029195139)
(-0.1980821 -0.050000001 -0.02763127)
(-0.1980821 0.30000001 -0.02763127)
(-0.19914681 -0.050000001 -0.018453671)
(-0.199338 -0.050001491 -0.016259721)
(-0.1965946 0.30000001 -0.036749899)
(-0.1946876 0.30000001 -0.04579011)
(-0.1965946 -0.050000001 -0.036749899)
(-0.1968025 -0.050001491 -0.035619851)
(-0.1940679 -0.050001491 -0.04834928)
(-0.1946876 -0.050000001 -0.04579011)
(-0.1923651 -0.050000001 -0.054732598)
(-0.19239131 -0.050001491 -0.054640491)
(-0.1923651 0.30000001 -0.054732598)
(-0.1896321 0.30000001 -0.06355828)
(-0.1896321 -0.050000001 -0.06355828)
(-0.1864944 0.30000001 -0.072248332)
(-0.1864944 -0.050000001 -0.072248332)
(-0.18614639 -0.050001491 -0.073140353)
(-0.1829588 0.30000001 -0.080784202)
(-0.1790327 0.30000001 -0.089147672)
(-0.1829588 -0.050000001 -0.080784202)
(-0.18366709 -0.050001491 -0.079160593)
(-0.1781273 -0.050001491 -0.090943113)
(-0.1790327 -0.050000001 -0.089147672)
(-0.1747245 -0.050000001 -0.097320899)
(-0.1750728 -0.050001491 -0.09669289)
(-0.1747245 0.30000001 -0.097320899)
(-0.17004339 0.30000001 -0.1052864)
(-0.17004339 -0.050000001 -0.1052864)
(-0.1649995 0.30000001 -0.1130273)
(-0.1649995 -0.050000001 -0.1130273)
(-0.1648099 -0.050001491 -0.1133036)
(-0.1596034 0.30000001 -0.1205269)
(-0.1529761 -0.050001491 -0.1288344)
(-0.1538668 -0.050000001 -0.1277694)
(-0.1538668 0.30000001 -0.1277694)
(-0.1596034 -0.050000001 -0.1205269)
(-0.1610346 -0.050001491 -0.1186081)
(-0.1478018 0.30000001 -0.1347391)
(-0.14142139 0.30000001 -0.14142139)
(-0.1478018 -0.050000001 -0.1347391)
(-0.1487015 -0.050001491 -0.13374551)
(-0.1396843 -0.050001491 -0.14313731)
(-0.14142139 -0.050000001 -0.14142139)
(-0.1347391 -0.050000001 -0.1478018)
(-0.13495129 -0.050001491 -0.1476081)
(-0.1347391 0.30000001 -0.1478018)
(-0.1277694 0.30000001 -0.1538668)
(-0.1277694 -0.050000001 -0.1538668)
(-0.1205269 0.30000001 -0.1596034)
(-0.1205269 -0.050000001 -0.1596034)
(-0.1130273 0.30000001 -0.1649995)
(-0.1199148 -0.050001491 -0.16006389)
(-0.1052864 0.30000001 -0.17004339)
(-0.1130273 -0.050000001 -0.1649995)
(-0.1146412 -0.050001491 -0.1638823)
(-0.1037353 -0.050001491 -0.1709941)
(-0.1052864 -0.050000001 -0.17004339)
(-0.097320899 -0.050000001 -0.1747245)
(-0.098114572 -0.050001491 -0.17428)
(-0.097320899 0.30000001 -0.1747245)
(-0.089147672 0.30000001 -0.1790327)
(-0.089147672 -0.050000001 -0.1790327)
(-0.080784202 0.30000001 -0.1829588)
(-0.080784202 -0.050000001 -0.1829588)
(-0.072248332 0.30000001 -0.1864944)
(-0.080652788 -0.050001491 -0.1830167)
(-0.062422309 -0.050001491 -0.1900091)
(-0.06355828 -0.050000001 -0.1896321)
(-0.06355828 0.30000001 -0.1896321)
(-0.072248332 -0.050000001 -0.1864944)
(-0.074652933 -0.050001491 -0.185545)
(-0.054732598 0.30000001 -0.1923651)
(-0.04579011 0.30000001 -0.1946876)
(-0.054732598 -0.050000001 -0.1923651)
(-0.056204509 -0.050001491 -0.1919402)
(-0.043596871 -0.050001491 -0.1951904)
(-0.04579011 -0.050000001 -0.1946876)
(-0.036749899 -0.050000001 -0.1965946)
(-0.0372204 -0.050001491 -0.1965061)
(-0.036749899 0.30000001 -0.1965946)
(-0.02763127 0.30000001 -0.1980821)
(-0.02763127 -0.050000001 -0.1980821)
(-0.018453671 0.30000001 -0.19914681)
(-0.018453671 -0.050000001 -0.19914681)
(-0.0092366925 0.30000001 -0.1997866)
(-0.017881541 -0.050001491 -0.19919901)
(0.00162775 -0.050001491 -0.1999934)
(2.5421829e-17 -0.050000001 -0.2)
(2.449294e-17 0.30000001 -0.2)
(-0.0092366925 -0.050000001 -0.1997866)
(-0.01138821 -0.050001491 -0.1996755)
(0.02112153 -0.050001491 -0.1988816)
(0.018453671 -0.050000001 -0.19914681)
(0.0092366925 0.30000001 -0.1997866)
(0.018453671 0.30000001 -0.19914681)
(0.0092366925 -0.050000001 -0.1997866)
(0.0081365947 -0.050001491 -0.19983441)
(0.02763127 0.30000001 -0.1980821)
(0.036749899 0.30000001 -0.1965946)
(0.046768211 -0.050001491 -0.194455)
(0.04579011 -0.050000001 -0.1946876)
(0.04579011 0.30000001 -0.1946876)
(0.036749899 -0.050000001 -0.1965946)
(0.034016948 -0.050001491 -0.1970859)
(0.054732598 0.30000001 -0.1923651)
(0.06355828 0.30000001 -0.1896321)
(0.054732598 -0.050000001 -0.1923651)
(0.053072859 -0.050001491 -0.19282959)
(0.065506808 -0.050001491 -0.1889679)
(0.06355828 -0.050000001 -0.1896321)
(0.072248332 -0.050000001 -0.1864944)
(0.07162293 -0.050001491 -0.1867355)
(0.072248332 0.30000001 -0.1864944)
(0.080784202 0.30000001 -0.1829588)
(0.080784202 -0.050000001 -0.1829588)
(0.089147672 0.30000001 -0.1790327)
(0.089147672 -0.050000001 -0.1790327)
(0.097320899 0.30000001 -0.1747245)
(0.089490362 -0.050001491 -0.1788616)
(0.1065048 -0.050001491 -0.169283)
(0.1052864 -0.050000001 -0.17004339)
(0.1052864 0.30000001 -0.17004339)
(0.097320899 -0.050000001 -0.1747245)
(0.095264807 -0.050001491 -0.175854)
(0.1130273 0.30000001 -0.1649995)
(0.1205269 0.30000001 -0.1596034)
(0.1130273 -0.050000001 -0.1649995)
(0.1119585 -0.050001491 -0.1657266)
(0.1225042 -0.050001491 -0.1580908)
(0.1205269 -0.050000001 -0.1596034)
(0.1277694 -0.050000001 -0.1538668)
(0.1275851 -0.050001491 -0.15401959)
(0.1277694 0.30000001 -0.1538668)
(0.1347391 0.30000001 -0.1478018)
(0.1347391 -0.050000001 -0.1478018)
(0.14142139 0.30000001 -0.14142139)
(0.14142139 -0.050000001 -0.14142139)
(0.1419957 -0.050001491 -0.1408447)
(0.1478018 0.30000001 -0.1347391)
(0.1538668 0.30000001 -0.1277694)
(0.1478018 -0.050000001 -0.1347391)
(0.14650489 -0.050001491 -0.1361482)
(0.1550529 -0.050001491 -0.1263274)
(0.1538668 -0.050000001 -0.1277694)
(0.1596034 -0.050000001 -0.1205269)
(0.15908261 -0.050001491 -0.1212135)
(0.1596034 0.30000001 -0.1205269)
(0.1649995 0.30000001 -0.1130273)
(0.1649995 -0.050000001 -0.1130273)
(0.17004339 0.30000001 -0.1052864)
(0.17004339 -0.050000001 -0.1052864)
(0.1747245 0.30000001 -0.097320899)
(0.1701442 -0.050001491 -0.1051236)
(0.179584 -0.050001491 -0.088031687)
(0.1790327 -0.050000001 -0.089147672)
(0.1790327 0.30000001 -0.089147672)
(0.1747245 -0.050000001 -0.097320899)
(0.1734757 -0.050001491 -0.099529743)
(0.1829588 0.30000001 -0.080784202)
(0.1864944 0.30000001 -0.072248332)
(0.1829588 -0.050000001 -0.080784202)
(0.1823543 -0.050001491 -0.082139648)
(0.1873123 -0.050001491 -0.070100769)
(0.1864944 -0.050000001 -0.072248332)
(0.1896321 -0.050000001 -0.06355828)
(0.1894948 -0.050001491 -0.063966677)
(0.1896321 0.30000001 -0.06355828)
(0.1923651 0.30000001 -0.054732598)
(0.1923651 -0.050000001 -0.054732598)
(0.1946876 0.30000001 -0.04579011)
(0.1946876 -0.050000001 -0.04579011)
(0.1948292 -0.050001491 -0.045184039)
(0.1965946 0.30000001 -0.036749899)
(0.19830661 -0.050001491 -0.02597075)
(0.1980821 -0.050000001 -0.02763127)
(0.1980821 0.30000001 -0.02763127)
(0.1965946 -0.050000001 -0.036749899)
(0.1961966 -0.050001491 -0.038818479)
(0.19914681 0.30000001 -0.018453671)
(0.1997866 0.30000001 -0.0092366925)
(0.19914681 -0.050000001 -0.018453671)
(0.19904689 -0.050001491 -0.01950218)
(0.2 0.30000001 1.224647e-17)
(0.199894 -0.050001491 -0.0065099229)
(0.1997866 -0.050000001 -0.0092366925)
(0.1997866 0.30000001 0.0092366925)
(0.19904689 -0.050001491 0.01950218)
(0.19914681 -0.050000001 0.018453671)
(0.19914681 0.30000001 0.018453671)
(0.1997866 -0.050000001 0.0092366925)
(0.199894 -0.050001491 0.0065099229)
(0.1980821 0.30000001 0.02763127)
(0.1965946 0.30000001 0.036749899)
(0.1980821 -0.050000001 0.02763127)
(0.19830661 -0.050001491 0.02597075)
(0.1961966 -0.050001491 0.038818479)
(0.1965946 -0.050000001 0.036749899)
(0.1946876 -0.050000001 0.04579011)
(0.1948292 -0.050001491 0.045184039)
(0.1946876 0.30000001 0.04579011)
(0.1923651 0.30000001 0.054732598)
(0.1923651 -0.050000001 0.054732598)
(0.1896321 0.30000001 0.06355828)
(0.1896321 -0.050000001 0.06355828)
(0.1864944 0.30000001 0.072248332)
(0.1894948 -0.050001491 0.063966677)
(0.1823543 -0.050001491 0.082139648)
(0.1829588 -0.050000001 0.080784202)
(0.1829588 0.30000001 0.080784202)
(0.1864944 -0.050000001 0.072248332)
(0.1873123 -0.050001491 0.070100769)
(0.1790327 0.30000001 0.089147672)
(0.1747245 0.30000001 0.097320899)
(0.1790327 -0.050000001 0.089147672)
(0.179584 -0.050001491 0.088031687)
(0.1734757 -0.050001491 0.099529743)
(0.1747245 -0.050000001 0.097320899)
(0.17004339 -0.050000001 0.1052864)
(0.1701442 -0.050001491 0.1051236)
(0.17004339 0.30000001 0.1052864)
(0.1649995 0.30000001 0.1130273)
(0.1649995 -0.050000001 0.1130273)
(0.1596034 0.30000001 0.1205269)
(0.1596034 -0.050000001 0.1205269)
(0.15908261 -0.050001491 0.1212135)
(0.1538668 0.30000001 0.1277694)
(0.1478018 0.30000001 0.1347391)
(0.1538668 -0.050000001 0.1277694)
(0.1550529 -0.050001491 0.1263274)
(0.14650489 -0.050001491 0.1361482)
(0.1478018 -0.050000001 0.1347391)
(0.14142139 -0.050000001 0.14142139)
(0.1419957 -0.050001491 0.1408447)
(0.14142139 0.30000001 0.14142139)
(0.1347391 0.30000001 0.1478018)
(0.1347391 -0.050000001 0.1478018)
(0.1277694 0.30000001 0.1538668)
(0.1277694 -0.050000001 0.1538668)
(0.1205269 0.30000001 0.1596034)
(0.1275851 -0.050001491 0.15401959)
(0.1119585 -0.050001491 0.1657266)
(0.1130273 -0.050000001 0.1649995)
(0.1130273 0.30000001 0.1649995)
(0.1205269 -0.050000001 0.1596034)
(0.1225042 -0.050001491 0.1580908)
(0.1052864 0.30000001 0.17004339)
(0.097320899 0.30000001 0.1747245)
(0.1052864 -0.050000001 0.17004339)
(0.1065048 -0.050001491 0.169283)
(0.095264807 -0.050001491 0.175854)
(0.097320899 -0.050000001 0.1747245)
(0.089147672 -0.050000001 0.1790327)
(0.089490362 -0.050001491 0.1788616)
(0.089147672 0.30000001 0.1790327)
(0.080784202 0.30000001 0.1829588)
(0.080784202 -0.050000001 0.1829588)
(0.072248332 0.30000001 0.1864944)
(0.072248332 -0.050000001 0.1864944)
(0.06355828 0.30000001 0.1896321)
(0.07162293 -0.050001491 0.1867355)
(0.054732598 0.30000001 0.1923651)
(0.06355828 -0.050000001 0.1896321)
(0.065506808 -0.050001491 0.1889679)
(0.053072859 -0.050001491 0.19282959)
(0.054732598 -0.050000001 0.1923651)
(0.04579011 -0.050000001 0.1946876)
(0.046768211 -0.050001491 0.194455)
(0.04579011 0.30000001 0.1946876)
(0.036749899 0.30000001 0.1965946)
(0.036749899 -0.050000001 0.1965946)
(0.034016948 -0.050001491 0.1970859)
(0.02763127 0.30000001 0.1980821)
(0.018453671 0.30000001 0.19914681)
(0.0081365947 -0.050001491 0.19983441)
(0.0092366925 -0.050000001 0.1997866)
(0.0092366925 0.30000001 0.1997866)
(0.018453671 -0.050000001 0.19914681)
(0.02112153 -0.050001491 0.1988816)
(-0.01138821 -0.050001491 0.1996755)
(-0.0092366925 -0.050000001 0.1997866)
(-4.8985871e-17 0.30000001 0.2)
(-8.3391231e-20 -0.050000001 0.2)
(0.00162775 -0.050001491 0.1999934)
)


// edges:

535
(
(76 77)
(78 79)
(0 76)
(79 80)
(81 0)
(1 81)
(80 82)
(83 1)
(82 84)
(85 83)
(86 87)
(87 2)
(84 88)
(2 89)
(89 90)
(91 92)
(3 93)
(88 91)
(93 94)
(95 96)
(96 3)
(97 98)
(92 99)
(4 97)
(99 100)
(101 4)
(5 101)
(100 102)
(103 5)
(102 104)
(105 103)
(104 106)
(6 107)
(107 108)
(109 110)
(110 6)
(111 112)
(106 113)
(7 111)
(113 114)
(115 7)
(8 115)
(114 116)
(117 8)
(116 118)
(119 117)
(120 121)
(121 9)
(118 122)
(9 123)
(123 124)
(125 126)
(10 127)
(122 125)
(127 128)
(129 130)
(130 10)
(131 132)
(126 133)
(11 131)
(133 134)
(135 11)
(12 135)
(134 136)
(137 12)
(136 138)
(139 137)
(138 140)
(13 141)
(141 142)
(143 144)
(144 13)
(145 146)
(140 147)
(14 145)
(147 148)
(149 14)
(15 149)
(148 150)
(151 15)
(150 152)
(153 151)
(154 155)
(155 16)
(152 156)
(16 157)
(157 158)
(159 160)
(17 161)
(156 159)
(161 162)
(163 164)
(164 17)
(165 166)
(160 167)
(18 165)
(167 168)
(169 18)
(19 169)
(168 170)
(171 19)
(172 171)
(170 173)
(174 175)
(175 20)
(173 176)
(20 177)
(177 178)
(179 180)
(21 181)
(176 179)
(181 182)
(183 184)
(184 21)
(185 186)
(180 187)
(22 185)
(187 188)
(189 22)
(23 189)
(188 190)
(191 23)
(192 191)
(190 193)
(193 194)
(24 195)
(195 196)
(197 198)
(198 24)
(199 200)
(194 201)
(25 199)
(201 202)
(203 25)
(26 203)
(202 204)
(205 26)
(206 205)
(204 207)
(208 209)
(209 27)
(207 210)
(27 211)
(211 212)
(213 214)
(28 215)
(210 213)
(215 216)
(217 218)
(218 28)
(219 220)
(214 221)
(29 219)
(221 222)
(223 29)
(30 223)
(222 224)
(225 30)
(224 226)
(227 225)
(226 228)
(31 229)
(229 230)
(231 232)
(232 31)
(233 234)
(228 235)
(32 233)
(235 236)
(237 32)
(33 237)
(236 238)
(239 33)
(238 240)
(241 239)
(242 243)
(243 34)
(240 244)
(34 245)
(245 246)
(247 248)
(35 249)
(244 247)
(249 250)
(251 252)
(252 35)
(253 254)
(248 255)
(36 253)
(255 256)
(257 36)
(37 257)
(256 258)
(259 37)
(258 260)
(261 259)
(262 263)
(263 38)
(260 264)
(38 265)
(265 266)
(267 268)
(268 39)
(269 270)
(39 271)
(264 269)
(271 272)
(273 274)
(270 273)
(275 276)
(276 40)
(274 277)
(40 278)
(278 279)
(280 281)
(41 282)
(277 280)
(282 283)
(284 285)
(285 41)
(286 287)
(281 288)
(42 286)
(288 289)
(290 42)
(43 290)
(289 291)
(292 43)
(291 293)
(294 292)
(295 296)
(296 44)
(293 297)
(44 298)
(298 299)
(300 301)
(45 302)
(297 300)
(302 303)
(304 305)
(305 45)
(306 307)
(301 308)
(46 306)
(308 309)
(310 46)
(47 310)
(309 311)
(312 47)
(313 312)
(311 314)
(314 315)
(48 316)
(316 317)
(318 319)
(319 48)
(320 321)
(315 322)
(49 320)
(322 323)
(324 49)
(50 324)
(323 325)
(326 50)
(325 327)
(328 326)
(329 330)
(330 51)
(327 331)
(51 332)
(332 333)
(334 335)
(52 336)
(331 334)
(336 337)
(338 339)
(339 52)
(340 341)
(335 342)
(53 340)
(342 343)
(344 53)
(54 344)
(343 345)
(346 54)
(347 346)
(345 348)
(349 350)
(350 55)
(348 351)
(55 352)
(352 353)
(354 355)
(56 356)
(351 354)
(356 357)
(355 358)
(359 360)
(360 56)
(358 361)
(362 363)
(363 57)
(361 364)
(57 365)
(365 366)
(367 368)
(58 369)
(364 367)
(369 370)
(371 372)
(372 58)
(373 374)
(368 375)
(59 373)
(375 376)
(377 59)
(60 377)
(376 378)
(379 60)
(378 380)
(381 379)
(382 383)
(383 61)
(380 384)
(61 385)
(385 386)
(387 388)
(62 389)
(384 387)
(389 390)
(391 392)
(392 62)
(393 394)
(388 395)
(63 393)
(395 396)
(397 63)
(64 397)
(396 398)
(399 64)
(400 399)
(398 401)
(401 402)
(65 403)
(403 404)
(405 406)
(406 65)
(407 408)
(402 409)
(66 407)
(409 410)
(411 66)
(67 411)
(410 412)
(413 67)
(412 414)
(415 413)
(416 417)
(417 68)
(414 418)
(68 419)
(419 420)
(421 422)
(69 423)
(418 421)
(423 424)
(425 426)
(426 69)
(427 428)
(422 429)
(70 427)
(429 430)
(431 70)
(71 431)
(430 432)
(433 71)
(432 434)
(435 433)
(434 436)
(72 437)
(437 438)
(439 440)
(440 72)
(441 442)
(436 443)
(73 441)
(443 444)
(445 73)
(446 445)
(444 447)
(447 448)
(449 450)
(450 74)
(448 451)
(74 452)
(452 453)
(454 455)
(455 75)
(456 78)
(75 457)
(451 456)
(457 458)
(56 357)
(349 55)
(55 353)
(347 54)
(54 53)
(53 341)
(338 52)
(52 337)
(329 51)
(51 333)
(328 50)
(50 49)
(49 321)
(318 48)
(48 317)
(313 47)
(47 46)
(46 307)
(304 45)
(45 303)
(295 44)
(44 299)
(294 43)
(43 42)
(42 287)
(284 41)
(41 283)
(275 40)
(40 279)
(267 39)
(39 272)
(262 38)
(38 266)
(261 37)
(37 36)
(36 254)
(251 35)
(35 250)
(242 34)
(34 246)
(241 33)
(33 32)
(32 234)
(231 31)
(31 230)
(227 30)
(30 29)
(29 220)
(217 28)
(28 216)
(208 27)
(27 212)
(206 26)
(26 25)
(25 200)
(197 24)
(24 196)
(192 23)
(23 22)
(22 186)
(183 21)
(21 182)
(174 20)
(20 178)
(172 19)
(19 18)
(18 166)
(163 17)
(17 162)
(154 16)
(16 158)
(153 15)
(15 14)
(14 146)
(143 13)
(13 142)
(139 12)
(12 11)
(11 132)
(129 10)
(10 128)
(120 9)
(9 124)
(119 8)
(8 7)
(7 112)
(109 6)
(6 108)
(105 5)
(5 4)
(4 98)
(95 3)
(3 94)
(86 2)
(2 90)
(85 1)
(1 0)
(0 77)
(454 75)
(75 458)
(449 74)
(74 453)
(446 73)
(73 442)
(439 72)
(72 438)
(435 71)
(71 70)
(70 428)
(425 69)
(69 424)
(416 68)
(68 420)
(415 67)
(67 66)
(66 408)
(405 65)
(65 404)
(400 64)
(64 63)
(63 394)
(391 62)
(62 390)
(382 61)
(61 386)
(381 60)
(60 59)
(59 374)
(371 58)
(58 370)
(362 57)
(57 366)
(359 56)
)

// * * * * * * * * * * * * * * * * * * * * * * * * * * * * * * * * * * * * * //


// ************************************************************************* //
