/*--------------------------------*- C++ -*----------------------------------*\
| =========                 |                                                 |
| \\      /  F ield         | OpenFOAM: The Open Source CFD Toolbox           |
|  \\    /   O peration     | Version:  4.x                                   |
|   \\  /    A nd           | Web:      www.OpenFOAM.org                      |
|    \\/     M anipulation  |                                                 |
\*---------------------------------------------------------------------------*/
FoamFile
{
    version     2.0;
    format      ascii;
    class       polyBoundaryMesh;
    location    "constant/polyMesh";
    object      boundary;
}
// * * * * * * * * * * * * * * * * * * * * * * * * * * * * * * * * * * * * * //

6
(
    plenum
    {
        type            patch;
        nFaces          0;
        startFace       7626;
    }
    outlet
    {
        type            patch;
        nFaces          294;
        startFace       7626;
    }
    sides
    {
        type            symmetry;
        inGroups        1(symmetry);
        nFaces          480;
        startFace       7920;
    }
    walls
    {
        type            wall;
        inGroups        1(wall);
        nFaces          249;
        startFace       8400;
    }
    procBoundary0to1
    {
        type            processor;
        inGroups        1(processor);
        nFaces          273;
        startFace       8649;
        matchTolerance  0.0001;
        transform       unknown;
        myProcNo        0;
        neighbProcNo    1;
    }
    procBoundary0to3
    {
        type            processor;
        inGroups        1(processor);
        nFaces          234;
        startFace       8922;
        matchTolerance  0.0001;
        transform       unknown;
        myProcNo        0;
        neighbProcNo    3;
    }
)

// ************************************************************************* //
