/*--------------------------------*- C++ -*----------------------------------*\
| =========                 |                                                 |
| \\      /  F ield         | OpenFOAM: The Open Source CFD Toolbox           |
|  \\    /   O peration     | Version:  v1912                                 |
|   \\  /    A nd           | Web:      www.OpenFOAM.com                      |
|    \\/     M anipulation  |                                                 |
\*---------------------------------------------------------------------------*/
FoamFile
{
    version     2.0;
    format      ascii;
    class       dictionary;
    location    "system";
    object      controlDict;
}
// * * * * * * * * * * * * * * * * * * * * * * * * * * * * * * * * * * * * * //

saveIter 500;

application     simpleFoam;

startFrom       startTime;
startTime       0;
stopAt          endTime;
endTime         1000;
deltaT          1;
writeControl    timeStep;
writeInterval   $saveIter;
purgeWrite      0;
writeFormat     ascii;
writePrecision  7;
writeCompression off;
timeFormat      general;
timePrecision   6;
runTimeModifiable true;

functions
{
    forcesBlades
    {
        type forces;
        libs ( "libforces.so" );
        patches (blades);
        rho     rhoInf;
        rhoInf  1000;
        UName   U;
        log     on;
        enabled         true;
        writeControl   timeStep;
        writeInterval  1;
        CofR (0 0 0);
    }

    yPlusPump
    {
        type            yPlus;
        libs ("libfieldFunctionObjects.so");
        writeControl   timeStep;
        writeInterval  $saveIter;
        patches         ("blades body");

     }
}
// ************************************************************************* //
