/*--------------------------------*- C++ -*----------------------------------*\
| =========                 |                                                 |
| \\      /  F ield         | OpenFOAM: The Open Source CFD Toolbox           |
|  \\    /   O peration     | Version:  v2006                                 |
|   \\  /    A nd           | Website:  www.openfoam.com                      |
|    \\/     M anipulation  |                                                 |
\*---------------------------------------------------------------------------*/
FoamFile
{
    version     2.0;
    format      ascii;
    class       volVectorField;
    location    "0";
    object      U;
}
// * * * * * * * * * * * * * * * * * * * * * * * * * * * * * * * * * * * * * //

dimensions      [0 1 -1 0 0 0 0];


internalField   uniform (1 0 0);

boundaryField
{
    inlet
    {
	    type            codedMixed;
	    refValue        uniform (0 0 0);
	    refGradient     uniform (0 0 0);
	    valueFraction   uniform 1;
	    name    rampedMixed;   // name of generated BC
	    code
	#{
	    const scalar t = this->db().time().value();
	    const scalar pi = constant::mathematical::pi;
           
	    this->refValue() =
		vector(1, 0, 0)
		*sin(300*pi*t)+vector(1, 0, 0);
	    this->refGrad() = Zero;
	    this->valueFraction() = 1.0;
	#};


    }
    outlet
    {
        type            velocityOutletNSCBC;
        pInf            101325;
        gamma           1.4;
        etaAc           1;
        fieldInf        (1 0 0);
        lInf            2.25;
        value           uniform (1 0 0);
    }
    frontAndBack
    {
        type            empty;
    }
}


// ************************************************************************* //
